
##########                                Name:    ZINC001596273020
##########                DOCK_Rotatable_Bonds:                  11
##########                         Heavy_Atoms:                  25
##########                    Molecular_Weight:             355.478
##########                DOCK_Rotatable_Bonds:                  11
##########                       Formal_Charge:          -0.0499996
##########                     HBond_Acceptors:                   7
##########                        HBond_Donors:                   2
##########                         Heavy_Atoms:                  25
##########                          Grid_Score:          -39.317612
##########                     Grid_vdw_energy:          -33.214386
##########                      Grid_es_energy:           -6.103227
##########           Internal_energy_repulsive:           20.161686

@<TRIPOS>MOLECULE
ZINC001596273020
 58 59 1 0 0
SMALL
USER_CHARGES


@<TRIPOS>ATOM
      1 C1         -6.7280    2.7670   54.7188 C.3     1  ZINC001596273020   -0.1900
      2 C2         -7.7704    2.0955   53.8224 C.3     1  ZINC001596273020   -0.0200
      3 N3         -7.0934    1.4057   52.7161 N.4     1  ZINC001596273020   -0.3900
      4 H4         -6.1754    1.1118   53.0145 H       1  ZINC001596273020    0.4300
      5 C5         -7.8788    0.2298   52.3184 C.3     1  ZINC001596273020   -0.0100
      6 C6         -9.3409    0.6356   52.1223 C.3     1  ZINC001596273020   -0.1900
      7 C7         -6.9673    2.3198   51.5731 C.3     1  ZINC001596273020   -0.0100
      8 C8         -5.9309    1.7692   50.5915 C.3     1  ZINC001596273020    0.0300
      9 O9         -4.7936    2.6341   50.5649 O.3     1  ZINC001596273020   -0.3900
     10 C10        -3.6712    2.1411   51.2993 C.3     1  ZINC001596273020    0.0500
     11 C11        -2.4889    3.0966   51.1261 C.3     1  ZINC001596273020    0.1400
     12 N12        -1.3096    2.3414   50.6959 N.am    1  ZINC001596273020   -0.7500
     13 C13        -1.1021    2.1045   49.3855 C.2     1  ZINC001596273020    0.7200
     14 O14        -1.8946    2.5162   48.5603 O.2     1  ZINC001596273020   -0.6000
     15 N15        -0.0163    1.4112   48.9897 N.am    1  ZINC001596273020   -0.6300
     16 C16         0.3831    1.0607   47.6043 C.3     1  ZINC001596273020    0.1100
     17 C17         1.9221    1.2899   47.5989 C.3     1  ZINC001596273020   -0.0800
     18 H18         2.3976    0.5787   46.9236 H       1  ZINC001596273020    0.1200
     19 C19         2.1708    2.7033   47.1113 C.3     1  ZINC001596273020   -0.1000
     20 C20         3.4370    3.3157   47.6935 C.3     1  ZINC001596273020   -0.1200
     21 C21         3.3059    3.3154   49.2224 C.3     1  ZINC001596273020   -0.1200
     22 C22         3.3548    1.8642   49.6893 C.3     1  ZINC001596273020   -0.0800
     23 C23         2.3381    0.9977   49.0238 C.3     1  ZINC001596273020   -0.1400
     24 C24         2.9388   -0.3839   48.9871 C.2     1  ZINC001596273020    0.5000
     25 O25         3.8671   -0.6649   49.7260 O.co2   1  ZINC001596273020   -0.6900
     26 O26         2.4967   -1.2208   48.2184 O.co2   1  ZINC001596273020   -0.6900
     27 C27         1.0518    0.8320   49.8403 C.3     1  ZINC001596273020    0.1600
     28 H28        -6.1236    2.0034   55.2081 H       1  ZINC001596273020    0.0800
     29 H29        -6.0855    3.4060   54.1130 H       1  ZINC001596273020    0.0800
     30 H30        -7.2326    3.3701   55.4737 H       1  ZINC001596273020    0.1000
     31 H31        -8.3405    1.3730   54.4064 H       1  ZINC001596273020    0.1300
     32 H32        -8.4452    2.8514   53.4206 H       1  ZINC001596273020    0.1300
     33 H33        -7.4848   -0.1717   51.3849 H       1  ZINC001596273020    0.1300
     34 H34        -7.8141   -0.5305   53.0968 H       1  ZINC001596273020    0.1300
     35 H35        -9.7671    0.9331   53.0805 H       1  ZINC001596273020    0.0800
     36 H36        -9.3955    1.4716   51.4251 H       1  ZINC001596273020    0.0800
     37 H37        -9.9017   -0.2089   51.7217 H       1  ZINC001596273020    0.1000
     38 H38        -7.9310    2.4095   51.0716 H       1  ZINC001596273020    0.1400
     39 H39        -6.6485    3.3007   51.9258 H       1  ZINC001596273020    0.1400
     40 H40        -5.6225    0.7733   50.9094 H       1  ZINC001596273020    0.1000
     41 H41        -6.3682    1.7133   49.5947 H       1  ZINC001596273020    0.0700
     42 H42        -3.9304    2.0716   52.3557 H       1  ZINC001596273020    0.0700
     43 H43        -3.3983    1.1540   50.9264 H       1  ZINC001596273020    0.0700
     44 H44        -2.7347    3.8461   50.3738 H       1  ZINC001596273020    0.0900
     45 H45        -2.2784    3.5898   52.0750 H       1  ZINC001596273020    0.0700
     46 H46        -0.6780    2.0120   51.3543 H       1  ZINC001596273020    0.3900
     47 H47         0.1499    0.0177   47.3900 H       1  ZINC001596273020    0.0700
     48 H48        -0.1053    1.7193   46.8861 H       1  ZINC001596273020    0.0600
     49 H49         2.2543    2.6905   46.0246 H       1  ZINC001596273020    0.0500
     50 H50         1.3199    3.3254   47.3888 H       1  ZINC001596273020    0.0400
     51 H51         4.3025    2.7226   47.3980 H       1  ZINC001596273020    0.0700
     52 H52         3.5505    4.3383   47.3338 H       1  ZINC001596273020    0.0500
     53 H53         4.1309    3.8741   49.6643 H       1  ZINC001596273020    0.0600
     54 H54         2.3563    3.7653   49.5121 H       1  ZINC001596273020    0.0500
     55 H55         4.3473    1.4634   49.4827 H       1  ZINC001596273020    0.0600
     56 H56         3.1866    1.8372   50.7659 H       1  ZINC001596273020    0.0600
     57 H57         1.1279    1.3740   50.7829 H       1  ZINC001596273020    0.0700
     58 H58         0.8513   -0.2237   50.0232 H       1  ZINC001596273020    0.0700
@<TRIPOS>BOND
     1     1     2    1
     2     1    28    1
     3     1    29    1
     4     1    30    1
     5     2     3    1
     6     2    31    1
     7     2    32    1
     8     3     4    1
     9     3     5    1
    10     3     7    1
    11     5     6    1
    12     5    33    1
    13     5    34    1
    14     6    35    1
    15     6    36    1
    16     6    37    1
    17     7     8    1
    18     7    38    1
    19     7    39    1
    20     8     9    1
    21     8    40    1
    22     8    41    1
    23     9    10    1
    24    10    11    1
    25    10    42    1
    26    10    43    1
    27    11    12    1
    28    11    44    1
    29    11    45    1
    30    12    13   am
    31    12    46    1
    32    13    14    2
    33    13    15   am
    34    15    27    1
    35    15    16    1
    36    16    17    1
    37    16    47    1
    38    16    48    1
    39    17    18    1
    40    17    23    1
    41    17    19    1
    42    19    20    1
    43    19    49    1
    44    19    50    1
    45    20    21    1
    46    20    51    1
    47    20    52    1
    48    21    22    1
    49    21    53    1
    50    21    54    1
    51    22    23    1
    52    22    55    1
    53    22    56    1
    54    23    24    1
    55    23    27    1
    56    24    25   ar
    57    24    26   ar
    58    27    57    1
    59    27    58    1
@<TRIPOS>SUBSTRUCTURE
     1 ZINC001596273020        1 TEMP              0 ****  ****    0 ROOT


##########                                Name:    ZINC000546142192
##########                DOCK_Rotatable_Bonds:                  12
##########                         Heavy_Atoms:                  31
##########                    Molecular_Weight:             420.511
##########                DOCK_Rotatable_Bonds:                  12
##########                       Formal_Charge:          -0.0599997
##########                     HBond_Acceptors:                   7
##########                        HBond_Donors:                   2
##########                         Heavy_Atoms:                  31
##########                          Grid_Score:          -36.788879
##########                     Grid_vdw_energy:          -34.593208
##########                      Grid_es_energy:           -2.195669
##########           Internal_energy_repulsive:           12.076094

@<TRIPOS>MOLECULE
ZINC000546142192
 59 61 1 0 0
SMALL
USER_CHARGES


@<TRIPOS>ATOM
      1 C1        -10.6736   -0.9889   58.5045 C.3     1  ZINC000546142192    0.0300
      2 O2        -11.1000   -1.6355   57.2763 O.3     1  ZINC000546142192   -0.3600
      3 C3        -12.4219   -1.7685   57.0846 C.2     1  ZINC000546142192    0.4600
      4 O4        -13.1436   -2.0348   58.0164 O.2     1  ZINC000546142192   -0.5100
      5 C5        -13.0057   -1.5854   55.7074 C.3     1  ZINC000546142192   -0.0800
      6 H6        -12.5335   -2.2841   55.0169 H       1  ZINC000546142192    0.1100
      7 C7        -14.5117   -1.8519   55.7524 C.3     1  ZINC000546142192   -0.1500
      8 C8        -12.7551   -0.1523   55.2337 C.3     1  ZINC000546142192   -0.0600
      9 C9        -11.3878   -0.0625   54.6062 C.ar    1  ZINC000546142192   -0.1000
     10 C10       -10.4098    0.7199   55.1922 C.ar    1  ZINC000546142192   -0.0900
     11 C11        -9.1556    0.8039   54.6199 C.ar    1  ZINC000546142192   -0.1200
     12 C12        -8.8774    0.1015   53.4547 C.ar    1  ZINC000546142192    0.1600
     13 N13        -7.6075    0.1841   52.8725 N.am    1  ZINC000546142192   -0.6900
     14 C14        -7.3081    1.2101   52.0514 C.2     1  ZINC000546142192    0.7100
     15 O15        -8.1412    2.0639   51.8167 O.2     1  ZINC000546142192   -0.5700
     16 N16        -6.0851    1.2897   51.4907 N.am    1  ZINC000546142192   -0.7400
     17 C17        -5.7602    2.4041   50.5969 C.3     1  ZINC000546142192    0.2300
     18 C18        -5.2943    3.5826   51.4125 C.2     1  ZINC000546142192    0.1800
     19 N19        -6.0174    4.6216   51.7295 N.2     1  ZINC000546142192   -0.4700
     20 C20        -5.2778    5.4691   52.4600 C.2     1  ZINC000546142192   -0.0300
     21 C21        -4.0495    4.9350   52.6009 C.2     1  ZINC000546142192   -0.0400
     22 N22        -4.0611    3.7358   51.9411 N.pl3   1  ZINC000546142192   -0.4500
     23 C23        -2.9420    2.7976   51.8231 C.3     1  ZINC000546142192    0.1100
     24 C24        -1.7404    3.5127   51.2023 C.3     1  ZINC000546142192   -0.0900
     25 C25        -1.2265    2.7103   50.0347 C.ar    1  ZINC000546142192   -0.0900
     26 C26        -0.1103    1.9088   50.1845 C.ar    1  ZINC000546142192   -0.1100
     27 C27         0.3609    1.1728   49.1134 C.ar    1  ZINC000546142192   -0.1200
     28 C28        -0.2844    1.2381   47.8927 C.ar    1  ZINC000546142192   -0.1200
     29 C29        -1.4012    2.0389   47.7431 C.ar    1  ZINC000546142192   -0.1200
     30 C30        -1.8749    2.7716   48.8153 C.ar    1  ZINC000546142192   -0.1100
     31 C31        -9.8617   -0.6834   52.8688 C.ar    1  ZINC000546142192   -0.1500
     32 C32       -11.1123   -0.7673   53.4489 C.ar    1  ZINC000546142192   -0.0900
     33 H33       -11.0379   -1.5577   59.3599 H       1  ZINC000546142192    0.0600
     34 H34        -9.5849   -0.9460   58.5336 H       1  ZINC000546142192    0.1000
     35 H35       -11.0782    0.0226   58.5419 H       1  ZINC000546142192    0.0600
     36 H36       -14.9838   -1.1531   56.4429 H       1  ZINC000546142192    0.0600
     37 H37       -14.9339   -1.7194   54.7563 H       1  ZINC000546142192    0.0800
     38 H38       -14.6901   -2.8727   56.0899 H       1  ZINC000546142192    0.0700
     39 H39       -13.5110    0.1248   54.4990 H       1  ZINC000546142192    0.0800
     40 H40       -12.8095    0.5265   56.0848 H       1  ZINC000546142192    0.0800
     41 H41       -10.6270    1.2662   56.0982 H       1  ZINC000546142192    0.1300
     42 H42        -8.3924    1.4154   55.0778 H       1  ZINC000546142192    0.1400
     43 H43        -6.9428   -0.4972   53.0597 H       1  ZINC000546142192    0.4100
     44 H44        -5.4200    0.6092   51.6790 H       1  ZINC000546142192    0.4000
     45 H45        -4.9687    2.1012   49.9113 H       1  ZINC000546142192    0.0800
     46 H46        -6.6467    2.6838   50.0278 H       1  ZINC000546142192    0.1000
     47 H47        -5.6090    6.4142   52.8643 H       1  ZINC000546142192    0.1700
     48 H48        -3.2168    5.3677   53.1354 H       1  ZINC000546142192    0.1800
     49 H49        -2.6731    2.4267   52.8122 H       1  ZINC000546142192    0.1000
     50 H50        -3.2346    1.9611   51.1887 H       1  ZINC000546142192    0.0900
     51 H51        -2.0438    4.5015   50.8584 H       1  ZINC000546142192    0.0800
     52 H52        -0.9523    3.6137   51.9486 H       1  ZINC000546142192    0.0800
     53 H53         0.3938    1.8578   51.1382 H       1  ZINC000546142192    0.1200
     54 H54         1.2333    0.5471   49.2304 H       1  ZINC000546142192    0.1200
     55 H55         0.0842    0.6636   47.0557 H       1  ZINC000546142192    0.1200
     56 H56        -1.9051    2.0901   46.7893 H       1  ZINC000546142192    0.1200
     57 H57        -2.7474    3.3973   48.6986 H       1  ZINC000546142192    0.1200
     58 H58        -9.6483   -1.2309   51.9625 H       1  ZINC000546142192    0.1300
     59 H59       -11.8782   -1.3780   52.9938 H       1  ZINC000546142192    0.1300
@<TRIPOS>BOND
     1     1     2    1
     2     1    33    1
     3     1    34    1
     4     1    35    1
     5     2     3    1
     6     3     4    2
     7     3     5    1
     8     5     6    1
     9     5     7    1
    10     5     8    1
    11     7    36    1
    12     7    37    1
    13     7    38    1
    14     8     9    1
    15     8    39    1
    16     8    40    1
    17     9    32   ar
    18     9    10   ar
    19    10    11   ar
    20    10    41    1
    21    11    12   ar
    22    11    42    1
    23    12    13    1
    24    12    31   ar
    25    13    14   am
    26    13    43    1
    27    14    15    2
    28    14    16   am
    29    16    17    1
    30    16    44    1
    31    17    18    1
    32    17    45    1
    33    17    46    1
    34    18    22    1
    35    18    19    2
    36    19    20    1
    37    20    21    2
    38    20    47    1
    39    21    22    1
    40    21    48    1
    41    22    23    1
    42    23    24    1
    43    23    49    1
    44    23    50    1
    45    24    25    1
    46    24    51    1
    47    24    52    1
    48    25    30   ar
    49    25    26   ar
    50    26    27   ar
    51    26    53    1
    52    27    28   ar
    53    27    54    1
    54    28    29   ar
    55    28    55    1
    56    29    30   ar
    57    29    56    1
    58    30    57    1
    59    31    32   ar
    60    31    58    1
    61    32    59    1
@<TRIPOS>SUBSTRUCTURE
     1 ZINC000546142192        1 TEMP              0 ****  ****    0 ROOT


##########                                Name:    ZINC000767361237
##########                DOCK_Rotatable_Bonds:                  10
##########                         Heavy_Atoms:                  30
##########                    Molecular_Weight:             409.439
##########                DOCK_Rotatable_Bonds:                  10
##########                       Formal_Charge:          -0.0300005
##########                     HBond_Acceptors:                   7
##########                        HBond_Donors:                   1
##########                         Heavy_Atoms:                  30
##########                          Grid_Score:          -36.780296
##########                     Grid_vdw_energy:          -35.520573
##########                      Grid_es_energy:           -1.259724
##########           Internal_energy_repulsive:           18.124084

@<TRIPOS>MOLECULE
ZINC000767361237
 53 55 1 0 0
SMALL
USER_CHARGES


@<TRIPOS>ATOM
      1 C1         -2.3950    3.5166   51.2815 C.3     1  ZINC000767361237   -0.1200
      2 C2         -3.8098    3.0701   51.5466 C.ar    1  ZINC000767361237   -0.0900
      3 C3         -4.5462    2.4734   50.5404 C.ar    1  ZINC000767361237   -0.1200
      4 C4         -5.8440    2.0639   50.7836 C.ar    1  ZINC000767361237   -0.1100
      5 C5         -6.4052    2.2510   52.0329 C.ar    1  ZINC000767361237   -0.0800
      6 C6         -7.8201    1.8051   52.2978 C.3     1  ZINC000767361237   -0.0800
      7 H7         -8.4259    1.9704   51.4070 H       1  ZINC000767361237    0.0900
      8 C8         -8.3982    2.6090   53.4641 C.3     1  ZINC000767361237   -0.1500
      9 C9         -7.8280    0.3164   52.6509 C.3     1  ZINC000767361237    0.1300
     10 H10        -7.2323    0.1528   53.5490 H       1  ZINC000767361237    0.1400
     11 O11        -7.2730   -0.4329   51.5682 O.3     1  ZINC000767361237   -0.5200
     12 C12        -9.2448   -0.1334   52.8990 C.2     1  ZINC000767361237    0.4300
     13 O13       -10.0386   -0.1592   51.9885 O.2     1  ZINC000767361237   -0.5000
     14 O14        -9.6248   -0.5055   54.1315 O.3     1  ZINC000767361237   -0.3300
     15 C15       -11.0035   -0.9299   54.2962 C.3     1  ZINC000767361237    0.0100
     16 C16       -11.1455   -1.6839   55.5933 C.2     1  ZINC000767361237    0.3700
     17 O17       -11.4627   -2.8491   55.5827 O.2     1  ZINC000767361237   -0.4200
     18 C18       -10.8915   -0.9839   56.9034 C.3     1  ZINC000767361237   -0.1800
     19 C19       -10.8175   -2.0183   58.0284 C.3     1  ZINC000767361237    0.1200
     20 N20       -10.3918   -1.3627   59.2674 N.am    1  ZINC000767361237   -0.5800
     21 C21        -9.1709   -1.4933   59.8169 C.2     1  ZINC000767361237    0.5700
     22 O22        -8.2610   -2.1630   59.3714 O.2     1  ZINC000767361237   -0.4600
     23 C23        -9.1219   -0.6845   61.0532 C.ar    1  ZINC000767361237   -0.1400
     24 C24        -8.1517   -0.4394   62.0112 C.ar    1  ZINC000767361237   -0.0400
     25 C25        -8.4377    0.3945   63.0814 C.ar    1  ZINC000767361237   -0.0900
     26 C26        -9.6831    0.9818   63.1985 C.ar    1  ZINC000767361237   -0.0900
     27 C27       -10.6639    0.7456   62.2474 C.ar    1  ZINC000767361237   -0.0400
     28 C28       -10.3924   -0.0853   61.1727 C.ar    1  ZINC000767361237   -0.1400
     29 C29       -11.1685   -0.5463   60.0022 C.2     1  ZINC000767361237    0.5700
     30 O30       -12.3160   -0.2407   59.7475 O.2     1  ZINC000767361237   -0.4600
     31 C31        -5.6683    2.8465   53.0395 C.ar    1  ZINC000767361237   -0.1100
     32 C32        -4.3692    3.2525   52.7975 C.ar    1  ZINC000767361237   -0.1200
     33 H33        -1.7083    2.7006   51.5069 H       1  ZINC000767361237    0.0700
     34 H34        -2.2931    3.7982   50.2335 H       1  ZINC000767361237    0.0700
     35 H35        -2.1601    4.3737   51.9126 H       1  ZINC000767361237    0.0700
     36 H36        -4.1077    2.3272   49.5643 H       1  ZINC000767361237    0.1200
     37 H37        -6.4195    1.5983   49.9972 H       1  ZINC000767361237    0.1200
     38 H38        -9.4216    2.2865   53.6558 H       1  ZINC000767361237    0.0800
     39 H39        -7.7923    2.4436   54.3551 H       1  ZINC000767361237    0.0700
     40 H40        -8.3925    3.6696   53.2126 H       1  ZINC000767361237    0.0600
     41 H41        -6.3619   -0.1933   51.3502 H       1  ZINC000767361237    0.3900
     42 H42       -11.6537   -0.0551   54.3114 H       1  ZINC000767361237    0.1100
     43 H43       -11.2857   -1.5780   53.4665 H       1  ZINC000767361237    0.1100
     44 H44        -9.9488   -0.4396   56.8478 H       1  ZINC000767361237    0.1100
     45 H45       -11.7033   -0.2850   57.1053 H       1  ZINC000767361237    0.1100
     46 H46       -11.7998   -2.4676   58.1741 H       1  ZINC000767361237    0.1100
     47 H47       -10.0992   -2.7937   57.7623 H       1  ZINC000767361237    0.1100
     48 H48        -7.1768   -0.8960   61.9249 H       1  ZINC000767361237    0.1400
     49 H49        -7.6821    0.5859   63.8289 H       1  ZINC000767361237    0.1400
     50 H50        -9.8940    1.6292   64.0368 H       1  ZINC000767361237    0.1400
     51 H51       -11.6353    1.2076   62.3438 H       1  ZINC000767361237    0.1400
     52 H52        -6.1066    2.9923   54.0157 H       1  ZINC000767361237    0.1200
     53 H53        -3.7935    3.7178   53.5838 H       1  ZINC000767361237    0.1200
@<TRIPOS>BOND
     1     1     2    1
     2     1    33    1
     3     1    34    1
     4     1    35    1
     5     2    32   ar
     6     2     3   ar
     7     3     4   ar
     8     3    36    1
     9     4     5   ar
    10     4    37    1
    11     5     6    1
    12     5    31   ar
    13     6     7    1
    14     6     8    1
    15     6     9    1
    16     8    38    1
    17     8    39    1
    18     8    40    1
    19     9    10    1
    20     9    11    1
    21     9    12    1
    22    11    41    1
    23    12    13    2
    24    12    14    1
    25    14    15    1
    26    15    16    1
    27    15    42    1
    28    15    43    1
    29    16    17    2
    30    16    18    1
    31    18    19    1
    32    18    44    1
    33    18    45    1
    34    19    20    1
    35    19    46    1
    36    19    47    1
    37    20    29   am
    38    20    21   am
    39    21    22    2
    40    21    23    1
    41    23    28   ar
    42    23    24   ar
    43    24    25   ar
    44    24    48    1
    45    25    26   ar
    46    25    49    1
    47    26    27   ar
    48    26    50    1
    49    27    28   ar
    50    27    51    1
    51    28    29    1
    52    29    30    2
    53    31    32   ar
    54    31    52    1
    55    32    53    1
@<TRIPOS>SUBSTRUCTURE
     1 ZINC000767361237        1 TEMP              0 ****  ****    0 ROOT


##########                                Name:    ZINC001574157642
##########                DOCK_Rotatable_Bonds:                   9
##########                         Heavy_Atoms:                  28
##########                    Molecular_Weight:             387.445
##########                DOCK_Rotatable_Bonds:                   9
##########                       Formal_Charge:          -0.0400004
##########                     HBond_Acceptors:                  11
##########                        HBond_Donors:                   4
##########                         Heavy_Atoms:                  28
##########                          Grid_Score:          -36.734184
##########                     Grid_vdw_energy:          -34.630623
##########                      Grid_es_energy:           -2.103560
##########           Internal_energy_repulsive:            8.035933

@<TRIPOS>MOLECULE
ZINC001574157642
 53 55 1 0 0
SMALL
USER_CHARGES


@<TRIPOS>ATOM
      1 C1          1.7397    4.0339   45.2713 C.3     1  ZINC001574157642   -0.1400
      2 C2          2.1657    3.8250   46.7259 C.3     1  ZINC001574157642   -0.0900
      3 C3          3.0750    4.9759   47.1613 C.3     1  ZINC001574157642   -0.1500
      4 C4          0.9251    3.7887   47.6205 C.3     1  ZINC001574157642   -0.1300
      5 C5          0.5293    2.3345   47.8848 C.3     1  ZINC001574157642    0.1300
      6 H6          0.5300    1.7813   46.9456 H       1  ZINC001574157642    0.1100
      7 C7         -0.8703    2.2909   48.5013 C.3     1  ZINC001574157642    0.1100
      8 N8         -0.8194    2.8206   49.8661 N.pl3   1  ZINC001574157642   -0.7100
      9 C9         -1.9630    2.8195   50.6550 C.ar    1  ZINC001574157642    0.3700
     10 C10        -1.9138    3.3224   51.9540 C.ar    1  ZINC001574157642    0.0000
     11 N11        -2.9984    3.3212   52.7032 N.ar    1  ZINC001574157642   -0.3700
     12 C12        -4.1403    2.8403   52.2193 C.ar    1  ZINC001574157642    0.0800
     13 C13        -5.3616    2.8393   53.0622 C.2     1  ZINC001574157642    0.2300
     14 N14        -6.5542    2.3933   52.7200 N.2     1  ZINC001574157642   -0.2700
     15 N15        -7.3432    2.5674   53.7240 N.pl3   1  ZINC001574157642   -0.2300
     16 N16        -6.6888    3.1095   54.6911 N.2     1  ZINC001574157642   -0.0400
     17 N17        -5.4657    3.2863   54.3219 N.2     1  ZINC001574157642   -0.2600
     18 C18        -4.1894    2.3382   50.9210 C.ar    1  ZINC001574157642    0.1600
     19 N19        -3.1035    2.3444   50.1695 N.ar    1  ZINC001574157642   -0.5000
     20 N20         1.4895    1.7275   48.8098 N.am    1  ZINC001574157642   -0.7300
     21 C21         1.8869    0.4525   48.6279 C.2     1  ZINC001574157642    0.5200
     22 O22         1.4484   -0.1927   47.6993 O.2     1  ZINC001574157642   -0.5100
     23 C23         2.8759   -0.1714   49.5784 C.3     1  ZINC001574157642   -0.1300
     24 H24         2.8130    0.3227   50.5480 H       1  ZINC001574157642    0.1100
     25 C25         4.2946   -0.0220   49.0160 C.3     1  ZINC001574157642   -0.1000
     26 C26         5.2888   -0.4968   50.0786 C.3     1  ZINC001574157642   -0.1400
     27 C27         4.8646   -1.8341   50.6141 C.2     1  ZINC001574157642    0.5200
     28 O28         5.6843   -2.4998   51.2108 O.2     1  ZINC001574157642   -0.5500
     29 N29         3.6347   -2.3287   50.4692 N.am    1  ZINC001574157642   -0.7200
     30 C30         2.5637   -1.6597   49.7399 C.3     1  ZINC001574157642    0.1200
     31 H31         1.2000    4.9767   45.1825 H       1  ZINC001574157642    0.0400
     32 H32         2.6235    4.0597   44.6340 H       1  ZINC001574157642    0.0500
     33 H33         1.0919    3.2139   44.9611 H       1  ZINC001574157642    0.0700
     34 H34         2.7054    2.8821   46.8146 H       1  ZINC001574157642    0.0700
     35 H35         2.5353    5.9188   47.0726 H       1  ZINC001574157642    0.0500
     36 H36         3.3785    4.8271   48.1975 H       1  ZINC001574157642    0.0500
     37 H37         3.9588    5.0018   46.5239 H       1  ZINC001574157642    0.0500
     38 H38         1.1449    4.2830   48.5667 H       1  ZINC001574157642    0.0700
     39 H39         0.1035    4.3042   47.1234 H       1  ZINC001574157642    0.0800
     40 H40        -1.5504    2.8960   47.9018 H       1  ZINC001574157642    0.0800
     41 H41        -1.2252    1.2605   48.5244 H       1  ZINC001574157642    0.0900
     42 H42         0.0129    3.1722   50.2193 H       1  ZINC001574157642    0.4100
     43 H43        -0.9867    3.7129   52.3469 H       1  ZINC001574157642    0.1700
     44 H44        -8.2830    2.3281   53.7471 H       1  ZINC001574157642    0.4800
     45 H45        -5.1162    1.9473   50.5277 H       1  ZINC001574157642    0.1800
     46 H46         1.8392    2.2431   49.5533 H       1  ZINC001574157642    0.4000
     47 H47         4.3992   -0.6306   48.1177 H       1  ZINC001574157642    0.0800
     48 H48         4.4859    1.0238   48.7757 H       1  ZINC001574157642    0.0900
     49 H49         6.2804   -0.5828   49.6342 H       1  ZINC001574157642    0.1100
     50 H50         5.3202    0.2262   50.8938 H       1  ZINC001574157642    0.1000
     51 H51         3.4389   -3.1870   50.8764 H       1  ZINC001574157642    0.4000
     52 H52         1.6274   -1.7790   50.2851 H       1  ZINC001574157642    0.0800
     53 H53         2.4626   -2.1118   48.7533 H       1  ZINC001574157642    0.0700
@<TRIPOS>BOND
     1     1     2    1
     2     1    31    1
     3     1    32    1
     4     1    33    1
     5     2     3    1
     6     2     4    1
     7     2    34    1
     8     3    35    1
     9     3    36    1
    10     3    37    1
    11     4     5    1
    12     4    38    1
    13     4    39    1
    14     5     6    1
    15     5     7    1
    16     5    20    1
    17     7     8    1
    18     7    40    1
    19     7    41    1
    20     8     9    1
    21     8    42    1
    22     9    19   ar
    23     9    10   ar
    24    10    11   ar
    25    10    43    1
    26    11    12   ar
    27    12    13    1
    28    12    18   ar
    29    13    17    1
    30    13    14    2
    31    14    15    1
    32    15    16    1
    33    15    44    1
    34    16    17    2
    35    18    19   ar
    36    18    45    1
    37    20    21   am
    38    20    46    1
    39    21    22    2
    40    21    23    1
    41    23    24    1
    42    23    30    1
    43    23    25    1
    44    25    26    1
    45    25    47    1
    46    25    48    1
    47    26    27    1
    48    26    49    1
    49    26    50    1
    50    27    28    2
    51    27    29   am
    52    29    30    1
    53    29    51    1
    54    30    52    1
    55    30    53    1
@<TRIPOS>SUBSTRUCTURE
     1 ZINC001574157642        1 TEMP              0 ****  ****    0 ROOT


##########                                Name:    ZINC000552360217
##########                DOCK_Rotatable_Bonds:                  13
##########                         Heavy_Atoms:                  27
##########                    Molecular_Weight:             401.484
##########                DOCK_Rotatable_Bonds:                  13
##########                       Formal_Charge:          -0.0100002
##########                     HBond_Acceptors:                  10
##########                        HBond_Donors:                   3
##########                         Heavy_Atoms:                  27
##########                          Grid_Score:          -36.290428
##########                     Grid_vdw_energy:          -34.273178
##########                      Grid_es_energy:           -2.017250
##########           Internal_energy_repulsive:           17.299707

@<TRIPOS>MOLECULE
ZINC000552360217
 54 54 1 0 0
SMALL
USER_CHARGES


@<TRIPOS>ATOM
      1 C1         -8.0104   -1.1873   60.1588 C.3     1  ZINC000552360217    0.0800
      2 N2         -8.5735    0.1576   60.3018 N.am    1  ZINC000552360217   -1.0000
      3 C3         -8.9205    0.6689   61.6301 C.3     1  ZINC000552360217    0.0900
      4 S4         -8.8176    1.0999   58.9621 S.o2    1  ZINC000552360217    2.7000
      5 O5         -9.5040    2.2615   59.4082 O.2     1  ZINC000552360217   -0.9500
      6 O6         -7.5756    1.1475   58.2733 O.2     1  ZINC000552360217   -0.9500
      7 C7         -9.9361    0.2336   57.9120 C.ar    1  ZINC000552360217   -0.6900
      8 C8        -10.9767   -0.4933   58.4620 C.ar    1  ZINC000552360217    0.0100
      9 C9        -11.8598   -1.1762   57.6442 C.ar    1  ZINC000552360217   -0.1400
     10 C10       -11.7075   -1.1362   56.2739 C.ar    1  ZINC000552360217   -0.0300
     11 C11       -10.6595   -0.4046   55.7124 C.ar    1  ZINC000552360217   -0.1600
     12 C12       -10.4904   -0.3569   54.2445 C.2     1  ZINC000552360217    0.5600
     13 O13       -11.1828   -1.0552   53.5299 O.2     1  ZINC000552360217   -0.5300
     14 N14        -9.5686    0.4608   53.6985 N.am    1  ZINC000552360217   -0.7100
     15 C15        -9.4022    0.5093   52.2438 C.3     1  ZINC000552360217    0.1000
     16 C16        -7.9399    0.6552   51.9100 C.2     1  ZINC000552360217    0.5100
     17 O17        -7.2286   -0.3258   51.8597 O.2     1  ZINC000552360217   -0.5400
     18 N18        -7.4225    1.8759   51.6676 N.am    1  ZINC000552360217   -0.7200
     19 C19        -6.0013    2.0176   51.3415 C.3     1  ZINC000552360217    0.1400
     20 C20        -5.5050    3.3874   51.8085 C.3     1  ZINC000552360217    0.1000
     21 C21        -6.5041    4.4645   51.3815 C.3     1  ZINC000552360217   -0.1800
     22 C22        -5.3731    3.3896   53.3328 C.3     1  ZINC000552360217   -0.1800
     23 O23        -4.2315    3.6587   51.2198 O.3     1  ZINC000552360217   -0.3700
     24 C24        -3.1730    2.8402   51.7212 C.3     1  ZINC000552360217    0.0600
     25 C25        -2.0481    2.7705   50.6865 C.3     1  ZINC000552360217    0.0800
     26 O26        -2.6097    2.6062   49.3828 O.3     1  ZINC000552360217   -0.5700
     27 C27        -9.7755    0.2862   56.5425 C.ar    1  ZINC000552360217    0.0400
     28 H28        -8.8180   -1.9069   60.0243 H       1  ZINC000552360217    0.0600
     29 H29        -7.3511   -1.2148   59.2911 H       1  ZINC000552360217    0.0900
     30 H30        -7.4431   -1.4409   61.0543 H       1  ZINC000552360217    0.0800
     31 H31        -8.6910   -0.0866   62.3817 H       1  ZINC000552360217    0.0800
     32 H32        -8.3439    1.5711   61.8342 H       1  ZINC000552360217    0.0700
     33 H33        -9.9846    0.9026   61.6629 H       1  ZINC000552360217    0.0600
     34 H34       -11.1003   -0.5282   59.5343 H       1  ZINC000552360217    0.1500
     35 H35       -12.6699   -1.7421   58.0800 H       1  ZINC000552360217    0.1400
     36 H36       -12.3972   -1.6699   55.6368 H       1  ZINC000552360217    0.1400
     37 H37        -9.0152    1.0171   54.2688 H       1  ZINC000552360217    0.4100
     38 H38        -9.7853   -0.4113   51.8033 H       1  ZINC000552360217    0.1000
     39 H39        -9.9530    1.3604   51.8433 H       1  ZINC000552360217    0.1000
     40 H40        -7.9912    2.6606   51.7091 H       1  ZINC000552360217    0.4100
     41 H41        -5.4334    1.2346   51.8441 H       1  ZINC000552360217    0.0800
     42 H42        -5.8654    1.9300   50.2635 H       1  ZINC000552360217    0.0900
     43 H43        -7.4755    4.2575   51.8306 H       1  ZINC000552360217    0.0700
     44 H44        -6.1505    5.4404   51.7142 H       1  ZINC000552360217    0.0700
     45 H45        -6.5982    4.4630   50.2956 H       1  ZINC000552360217    0.0700
     46 H46        -4.6612    2.6222   53.6370 H       1  ZINC000552360217    0.0600
     47 H47        -5.0194    4.3655   53.6655 H       1  ZINC000552360217    0.0700
     48 H48        -6.3444    3.1826   53.7818 H       1  ZINC000552360217    0.0700
     49 H49        -2.7891    3.2692   52.6469 H       1  ZINC000552360217    0.0600
     50 H50        -3.5507    1.8363   51.9154 H       1  ZINC000552360217    0.0700
     51 H51        -1.4673    3.6923   50.7185 H       1  ZINC000552360217    0.0600
     52 H52        -1.3992    1.9242   50.9119 H       1  ZINC000552360217    0.0500
     53 H53        -3.1816    3.3353   49.1063 H       1  ZINC000552360217    0.3800
     54 H54        -8.9627    0.8540   56.1144 H       1  ZINC000552360217    0.1500
@<TRIPOS>BOND
     1     1     2    1
     2     1    28    1
     3     1    29    1
     4     1    30    1
     5     2     3    1
     6     2     4   am
     7     3    31    1
     8     3    32    1
     9     3    33    1
    10     4     5    2
    11     4     6    2
    12     4     7    1
    13     7    27   ar
    14     7     8   ar
    15     8     9   ar
    16     8    34    1
    17     9    10   ar
    18     9    35    1
    19    10    11   ar
    20    10    36    1
    21    11    12    1
    22    11    27   ar
    23    12    13    2
    24    12    14   am
    25    14    15    1
    26    14    37    1
    27    15    16    1
    28    15    38    1
    29    15    39    1
    30    16    17    2
    31    16    18   am
    32    18    19    1
    33    18    40    1
    34    19    20    1
    35    19    41    1
    36    19    42    1
    37    20    21    1
    38    20    22    1
    39    20    23    1
    40    21    43    1
    41    21    44    1
    42    21    45    1
    43    22    46    1
    44    22    47    1
    45    22    48    1
    46    23    24    1
    47    24    25    1
    48    24    49    1
    49    24    50    1
    50    25    26    1
    51    25    51    1
    52    25    52    1
    53    26    53    1
    54    27    54    1
@<TRIPOS>SUBSTRUCTURE
     1 ZINC000552360217        1 TEMP              0 ****  ****    0 ROOT


##########                                Name:     oleObject79.pdb
##########                DOCK_Rotatable_Bonds:                  12
##########                         Heavy_Atoms:                  53
##########                    Molecular_Weight:             725.376
##########                DOCK_Rotatable_Bonds:                  12
##########                       Formal_Charge:          0.00050066
##########                     HBond_Acceptors:                   8
##########                        HBond_Donors:                   4
##########                         Heavy_Atoms:                  53
##########                          Grid_Score:          -35.943378
##########                     Grid_vdw_energy:          -35.979351
##########                      Grid_es_energy:            0.035972
##########           Internal_energy_repulsive:           56.518867

@<TRIPOS>MOLECULE
oleObject79.pdb
 102 108 1 0 0
SMALL
NO_CHARGES


@<TRIPOS>ATOM
      1 C         -13.0107   -0.5016   56.1512 C.ar    1  UNL        -0.0620
      2 C         -13.5360    0.6448   56.7633 C.ar    1  UNL        -0.0590
      3 C         -12.7463    1.4270   57.6287 C.ar    1  UNL        -0.0456
      4 C         -11.4002    1.0532   57.8839 C.ar    1  UNL        -0.0185
      5 C         -10.8898   -0.1046   57.2575 C.ar    1  UNL        -0.0565
      6 C         -11.6854   -0.8768   56.3993 C.ar    1  UNL        -0.0619
      7 C         -10.4711    1.8989   58.7782 C.3     1  UNL         0.0931
      8 C         -10.8575    1.9377   60.2686 C.ar    1  UNL         0.0683
      9 C         -10.3860    2.9640   61.1268 C.ar    1  UNL        -0.0272
     10 C         -10.7771    2.9406   62.4789 C.ar    1  UNL        -0.0559
     11 C         -11.6162    1.9122   62.9306 C.ar    1  UNL        -0.0435
     12 C         -12.0378    0.9385   62.0137 C.ar    1  UNL         0.0272
     13 N         -11.6680    0.9518   60.7196 N.ar    1  UNL        -0.2587
     14 C          -9.4741    4.0833   60.6347 C.3     1  UNL        -0.0379
     15 N          -9.0378    1.5877   58.5171 N.am    1  UNL        -0.2918
     16 C          -8.2747    2.4131   57.6883 C.2     1  UNL         0.2179
     17 O          -7.0566    2.3565   57.7224 O.2     1  UNL        -0.2772
     18 C          -8.9987    3.6417   57.0746 C.3     1  UNL         0.0361
     19 C         -10.0305    3.2584   55.9752 C.3     1  UNL        -0.0412
     20 C          -9.3828    2.8161   54.6340 C.3     1  UNL        -0.0453
     21 C          -8.3158    3.8053   54.0774 C.3     1  UNL        -0.0139
     22 C          -7.5257    3.0911   52.9459 C.3     1  UNL         0.0171
     23 N          -6.5659    4.0129   52.3050 N.pl3   1  UNL        -0.3290
     24 C          -7.1948    5.1827   51.6610 C.3     1  UNL         0.0115
     25 C          -8.0410    5.9775   52.6835 C.3     1  UNL        -0.0368
     26 C          -9.0158    5.0602   53.4638 C.3     1  UNL        -0.0446
     27 C          -5.2206    3.6706   52.1321 C.ar    1  UNL         0.0476
     28 C          -4.2292    4.4783   52.7228 C.ar    1  UNL        -0.0375
     29 C          -2.8665    4.1906   52.5514 C.ar    1  UNL        -0.0388
     30 C          -2.4609    3.1006   51.7662 C.ar    1  UNL         0.0318
     31 C          -3.4447    2.2782   51.1871 C.ar    1  UNL        -0.0202
     32 C          -4.8110    2.5582   51.3591 C.ar    1  UNL         0.0636
     33 CL         -5.9500    1.5161   50.5237 Cl      1  UNL        -0.0822
     34 N          -1.0990    2.8458   51.6182 N.pl3   1  UNL        -0.3149
     35 C          -0.3032    2.7039   50.4827 C.ar    1  UNL         0.0302
     36 C           1.0454    2.3091   50.5561 C.ar    1  UNL        -0.0402
     37 C           1.8082    2.1510   49.3881 C.ar    1  UNL        -0.0525
     38 C           1.2476    2.3745   48.1060 C.ar    1  UNL        -0.0182
     39 C          -0.1167    2.7534   48.0499 C.ar    1  UNL        -0.0525
     40 C          -0.8802    2.9064   49.2187 C.ar    1  UNL        -0.0402
     41 C           2.0621    2.2064   46.8561 C.ar    1  UNL        -0.0177
     42 C           1.7531    2.9265   45.6740 C.ar    1  UNL        -0.0439
     43 C           2.5069    2.7780   44.4893 C.ar    1  UNL         0.0111
     44 C           3.5973    1.8836   44.4903 C.ar    1  UNL        -0.0518
     45 C           3.9240    1.1611   45.6468 C.ar    1  UNL        -0.0609
     46 C           3.1666    1.3209   46.8160 C.ar    1  UNL        -0.0543
     47 C           2.1818    3.5049   43.3395 C.2     1  UNL         0.1014
     48 N           1.1431    4.2538   43.2732 N.3     1  UNL        -0.2892
     49 N           2.9521    3.4406   42.2449 N.3     1  UNL        -0.2870
     50 C          -7.3198    4.1873   55.2164 C.3     1  UNL        -0.0453
     51 C          -8.0110    4.6910   56.5015 C.3     1  UNL        -0.0412
     52 C          -8.4506    0.4053   59.1847 C.3     1  UNL         0.0037
     53 C         -13.3765    2.6729   58.2421 C.3     1  UNL        -0.0394
     54 H         -13.6268   -1.0957   55.4832 H       1  UNL         0.0623
     55 H         -14.5636    0.9304   56.5577 H       1  UNL         0.0626
     56 H          -9.8645   -0.4115   57.4347 H       1  UNL         0.0627
     57 H         -11.2730   -1.7627   55.9256 H       1  UNL         0.0623
     58 H         -10.6054    2.9345   58.4618 H       1  UNL         0.0626
     59 H         -10.4376    3.7075   63.1693 H       1  UNL         0.0627
     60 H         -11.9344    1.8706   63.9681 H       1  UNL         0.0639
     61 H         -12.6914    0.1236   62.3227 H       1  UNL         0.0840
     62 H          -8.5273    3.6843   60.2513 H       1  UNL         0.0280
     63 H          -9.2281    4.7872   61.4394 H       1  UNL         0.0280
     64 H          -9.9500    4.6605   59.8324 H       1  UNL         0.0280
     65 H          -9.5604    4.1122   57.8907 H       1  UNL         0.0401
     66 H         -10.6765    4.1246   55.7837 H       1  UNL         0.0275
     67 H         -10.6907    2.4634   56.3454 H       1  UNL         0.0275
     68 H         -10.1729    2.6595   53.8882 H       1  UNL         0.0273
     69 H          -8.9169    1.8332   54.7714 H       1  UNL         0.0273
     70 H          -8.2271    2.7145   52.1900 H       1  UNL         0.0474
     71 H          -6.9980    2.2257   53.3680 H       1  UNL         0.0474
     72 H          -7.8486    4.8364   50.8504 H       1  UNL         0.0468
     73 H          -6.4390    5.8400   51.2140 H       1  UNL         0.0468
     74 H          -8.6077    6.7584   52.1613 H       1  UNL         0.0283
     75 H          -7.3780    6.4949   53.3869 H       1  UNL         0.0283
     76 H          -9.7943    4.7268   52.7651 H       1  UNL         0.0273
     77 H          -9.5308    5.6451   54.2346 H       1  UNL         0.0273
     78 H          -4.5151    5.3339   53.3277 H       1  UNL         0.0644
     79 H          -2.1221    4.8290   53.0191 H       1  UNL         0.0643
     80 H          -3.1547    1.4118   50.6010 H       1  UNL         0.0659
     81 H          -0.5930    2.7689   52.4911 H       1  UNL         0.1528
     82 H           1.5066    2.1038   51.5160 H       1  UNL         0.0643
     83 H           2.8501    1.8627   49.4864 H       1  UNL         0.0630
     84 H          -0.5997    2.9112   47.0908 H       1  UNL         0.0630
     85 H          -1.9260    3.1901   49.1404 H       1  UNL         0.0643
     86 H           0.9168    3.6186   45.6822 H       1  UNL         0.0637
     87 H           4.2054    1.7528   43.5994 H       1  UNL         0.0630
     88 H           4.7659    0.4746   45.6367 H       1  UNL         0.0623
     89 H           3.4310    0.7362   47.6915 H       1  UNL         0.0629
     90 H           0.5013    4.0502   44.0424 H       1  UNL         0.1889
     91 H           2.7667    2.7349   41.5344 H       1  UNL         0.1258
     92 H           3.2079    4.2995   41.7611 H       1  UNL         0.1258
     93 H          -6.6018    4.9431   54.8792 H       1  UNL         0.0273
     94 H          -6.7221    3.3043   55.4699 H       1  UNL         0.0273
     95 H          -8.5524    5.6204   56.2882 H       1  UNL         0.0275
     96 H          -7.2497    4.9594   57.2413 H       1  UNL         0.0275
     97 H          -7.9519   -0.2446   58.4572 H       1  UNL         0.0433
     98 H          -9.2166   -0.1904   59.6942 H       1  UNL         0.0433
     99 H          -7.7145    0.7375   59.9272 H       1  UNL         0.0433
    100 H         -14.4399    2.7597   57.9865 H       1  UNL         0.0280
    101 H         -12.8796    3.5822   57.8813 H       1  UNL         0.0280
    102 H         -13.3060    2.6539   59.3369 H       1  UNL         0.0280
@<TRIPOS>BOND
     1     1     2   ar
     2     1     6   ar
     3     1    54    1
     4     2     3   ar
     5     2    55    1
     6     3     4   ar
     7     3    53    1
     8     4     5   ar
     9     4     7    1
    10     5     6   ar
    11     5    56    1
    12     6    57    1
    13     7     8    1
    14     7    15    1
    15     7    58    1
    16     8     9   ar
    17     8    13   ar
    18     9    10   ar
    19     9    14    1
    20    10    11   ar
    21    10    59    1
    22    11    12   ar
    23    11    60    1
    24    12    13   ar
    25    12    61    1
    26    14    62    1
    27    14    63    1
    28    14    64    1
    29    15    16   am
    30    15    52    1
    31    16    17    2
    32    16    18    1
    33    18    19    1
    34    18    51    1
    35    18    65    1
    36    19    20    1
    37    19    66    1
    38    19    67    1
    39    20    21    1
    40    20    68    1
    41    20    69    1
    42    21    22    1
    43    21    26    1
    44    21    50    1
    45    22    23    1
    46    22    70    1
    47    22    71    1
    48    23    24    1
    49    23    27    1
    50    24    25    1
    51    24    72    1
    52    24    73    1
    53    25    26    1
    54    25    74    1
    55    25    75    1
    56    26    76    1
    57    26    77    1
    58    27    28   ar
    59    27    32   ar
    60    28    29   ar
    61    28    78    1
    62    29    30   ar
    63    29    79    1
    64    30    31   ar
    65    30    34    1
    66    31    32   ar
    67    31    80    1
    68    32    33    1
    69    34    35    1
    70    34    81    1
    71    35    36   ar
    72    35    40   ar
    73    36    37   ar
    74    36    82    1
    75    37    38   ar
    76    37    83    1
    77    38    39   ar
    78    38    41    1
    79    39    40   ar
    80    39    84    1
    81    40    85    1
    82    41    42   ar
    83    41    46   ar
    84    42    43   ar
    85    42    86    1
    86    43    44   ar
    87    43    47    1
    88    44    45   ar
    89    44    87    1
    90    45    46   ar
    91    45    88    1
    92    46    89    1
    93    47    48    1
    94    47    49    1
    95    48    90    1
    96    49    91    1
    97    49    92    1
    98    50    51    1
    99    50    93    1
   100    50    94    1
   101    51    95    1
   102    51    96    1
   103    52    97    1
   104    52    98    1
   105    52    99    1
   106    53   100    1
   107    53   101    1
   108    53   102    1
@<TRIPOS>SUBSTRUCTURE
     1 UNL         1 TEMP              0 ****  ****    0 ROOT


##########                                Name:    ZINC000428266315
##########                DOCK_Rotatable_Bonds:                  10
##########                         Heavy_Atoms:                  30
##########                    Molecular_Weight:             423.438
##########                DOCK_Rotatable_Bonds:                  10
##########                       Formal_Charge:          0.00999977
##########                     HBond_Acceptors:                  10
##########                        HBond_Donors:                   0
##########                         Heavy_Atoms:                  30
##########                          Grid_Score:          -35.762196
##########                     Grid_vdw_energy:          -36.693100
##########                      Grid_es_energy:            0.930903
##########           Internal_energy_repulsive:           15.604127

@<TRIPOS>MOLECULE
ZINC000428266315
 54 56 1 0 0
SMALL
USER_CHARGES


@<TRIPOS>ATOM
      1 C1         -2.6550    2.6977   49.7189 C.3     1  ZINC000428266315   -0.1500
      2 C2         -3.6622    3.1087   50.7948 C.3     1  ZINC000428266315    0.0600
      3 O3         -4.7351    2.1653   50.8281 O.3     1  ZINC000428266315   -0.3700
      4 C4         -5.7408    2.4629   51.7986 C.3     1  ZINC000428266315    0.1800
      5 H5         -5.2852    2.5243   52.7869 H       1  ZINC000428266315    0.0900
      6 C6         -6.3995    3.8009   51.4567 C.3     1  ZINC000428266315   -0.1700
      7 C7         -6.7827    1.3741   51.7925 C.2     1  ZINC000428266315    0.1700
      8 N8         -6.5899    0.1269   51.4831 N.2     1  ZINC000428266315   -0.3500
      9 O9         -7.6274   -0.4943   51.5770 O.3     1  ZINC000428266315    0.0800
     10 C10        -8.6105    0.3224   51.9673 C.2     1  ZINC000428266315    0.1900
     11 C11       -10.0507   -0.0546   52.2017 C.3     1  ZINC000428266315    0.1500
     12 N12       -10.2623   -0.3145   53.6320 N.3     1  ZINC000428266315   -0.5300
     13 C13       -10.1842    0.9291   54.4101 C.3     1  ZINC000428266315    0.0200
     14 C14       -11.5425   -0.9981   53.8591 C.3     1  ZINC000428266315    0.1400
     15 C15       -11.7424   -1.2118   55.3374 C.2     1  ZINC000428266315   -0.2300
     16 C16       -11.1691   -2.1823   56.0862 C.2     1  ZINC000428266315    0.0800
     17 N17       -11.6019   -2.0322   57.3555 N.pl3   1  ZINC000428266315   -0.3700
     18 C18       -11.2294   -2.8702   58.4980 C.3     1  ZINC000428266315    0.1700
     19 C19       -10.6897   -2.0006   59.6040 C.ar    1  ZINC000428266315   -0.0800
     20 C20        -9.3252   -1.8343   59.7492 C.ar    1  ZINC000428266315   -0.1000
     21 C21        -8.8301   -1.0367   60.7639 C.ar    1  ZINC000428266315   -0.0700
     22 C22        -9.6996   -0.4048   61.6331 C.ar    1  ZINC000428266315   -0.1700
     23 C23        -9.1599    0.4644   62.7395 C.3     1  ZINC000428266315    0.5100
     24 F24       -10.1540    0.6626   63.7038 F       1  ZINC000428266315   -0.1700
     25 F25        -8.0568   -0.1623   63.3290 F       1  ZINC000428266315   -0.1800
     26 F26        -8.7681    1.6998   62.2129 F       1  ZINC000428266315   -0.1800
     27 C27       -11.0643   -0.5700   61.4871 C.ar    1  ZINC000428266315   -0.0700
     28 C28       -11.5595   -1.3646   60.4700 C.ar    1  ZINC000428266315   -0.0800
     29 N29       -12.4700   -0.9332   57.3879 N.2     1  ZINC000428266315   -0.2900
     30 C30       -12.5487   -0.4387   56.1792 C.2     1  ZINC000428266315    0.0600
     31 N31        -8.0817    1.5136   52.1121 N.2     1  ZINC000428266315   -0.4600
     32 H32        -1.8366    3.4173   49.6934 H       1  ZINC000428266315    0.0700
     33 H33        -2.2613    1.7077   49.9490 H       1  ZINC000428266315    0.0600
     34 H34        -3.1495    2.6754   48.7478 H       1  ZINC000428266315    0.0600
     35 H35        -3.1677    3.1311   51.7659 H       1  ZINC000428266315    0.0500
     36 H36        -4.0559    4.0987   50.5646 H       1  ZINC000428266315    0.0500
     37 H37        -6.8551    3.7396   50.4684 H       1  ZINC000428266315    0.0700
     38 H38        -7.1666    4.0279   52.1970 H       1  ZINC000428266315    0.0700
     39 H39        -5.6459    4.5885   51.4611 H       1  ZINC000428266315    0.0700
     40 H40       -10.6971    0.7625   51.8814 H       1  ZINC000428266315    0.0800
     41 H41       -10.2890   -0.9518   51.6304 H       1  ZINC000428266315    0.1200
     42 H42       -10.9502    1.6231   54.0639 H       1  ZINC000428266315    0.0400
     43 H43       -10.3445    0.7081   55.4654 H       1  ZINC000428266315    0.0800
     44 H44        -9.2002    1.3789   54.2784 H       1  ZINC000428266315    0.0600
     45 H45       -12.3554   -0.3866   53.4672 H       1  ZINC000428266315    0.0500
     46 H46       -11.5349   -1.9620   53.3503 H       1  ZINC000428266315    0.0900
     47 H47       -10.4872   -2.9411   55.7315 H       1  ZINC000428266315    0.1700
     48 H48       -12.1071   -3.4091   58.8548 H       1  ZINC000428266315    0.1000
     49 H49       -10.4649   -3.5839   58.1910 H       1  ZINC000428266315    0.1100
     50 H50        -8.6457   -2.3280   59.0702 H       1  ZINC000428266315    0.1300
     51 H51        -7.7639   -0.9073   60.8777 H       1  ZINC000428266315    0.1400
     52 H52       -11.7437   -0.0761   62.1659 H       1  ZINC000428266315    0.1400
     53 H53       -12.6257   -1.4937   60.3560 H       1  ZINC000428266315    0.1400
     54 H54       -13.1402    0.4143   55.8812 H       1  ZINC000428266315    0.1800
@<TRIPOS>BOND
     1     1     2    1
     2     1    32    1
     3     1    33    1
     4     1    34    1
     5     2     3    1
     6     2    35    1
     7     2    36    1
     8     3     4    1
     9     4     5    1
    10     4     6    1
    11     4     7    1
    12     6    37    1
    13     6    38    1
    14     6    39    1
    15     7    31    1
    16     7     8    2
    17     8     9    1
    18     9    10    1
    19    10    11    1
    20    10    31    2
    21    11    12    1
    22    11    40    1
    23    11    41    1
    24    12    13    1
    25    12    14    1
    26    13    42    1
    27    13    43    1
    28    13    44    1
    29    14    15    1
    30    14    45    1
    31    14    46    1
    32    15    30    1
    33    15    16    2
    34    16    17    1
    35    16    47    1
    36    17    18    1
    37    17    29    1
    38    18    19    1
    39    18    48    1
    40    18    49    1
    41    19    28   ar
    42    19    20   ar
    43    20    21   ar
    44    20    50    1
    45    21    22   ar
    46    21    51    1
    47    22    23    1
    48    22    27   ar
    49    23    24    1
    50    23    25    1
    51    23    26    1
    52    27    28   ar
    53    27    52    1
    54    28    53    1
    55    29    30    2
    56    30    54    1
@<TRIPOS>SUBSTRUCTURE
     1 ZINC000428266315        1 TEMP              0 ****  ****    0 ROOT


##########                                Name:    ZINC000062291520
##########                DOCK_Rotatable_Bonds:                  10
##########                         Heavy_Atoms:                  29
##########                    Molecular_Weight:             398.502
##########                DOCK_Rotatable_Bonds:                  10
##########                       Formal_Charge:          -0.0100006
##########                     HBond_Acceptors:                   6
##########                        HBond_Donors:                   1
##########                         Heavy_Atoms:                  29
##########                          Grid_Score:          -35.589493
##########                     Grid_vdw_energy:          -34.020031
##########                      Grid_es_energy:           -1.569463
##########           Internal_energy_repulsive:           14.852664

@<TRIPOS>MOLECULE
ZINC000062291520
 59 61 1 0 0
SMALL
USER_CHARGES


@<TRIPOS>ATOM
      1 C1          1.5472   -1.7302   61.6894 C.3     1  ZINC000062291520    0.0300
      2 O2          0.9118   -0.7677   60.8454 O.3     1  ZINC000062291520   -0.3100
      3 C3          0.2033    0.2182   61.4580 C.ar    1  ZINC000062291520    0.1000
      4 C4          0.1169    0.2550   62.8400 C.ar    1  ZINC000062291520   -0.1700
      5 C5         -0.6088    1.2551   63.4611 C.ar    1  ZINC000062291520   -0.1200
      6 C6         -1.2443    2.2227   62.7061 C.ar    1  ZINC000062291520   -0.1200
      7 C7         -1.1569    2.1953   61.3262 C.ar    1  ZINC000062291520   -0.1700
      8 C8         -0.4316    1.1963   60.6978 C.ar    1  ZINC000062291520    0.1000
      9 O9         -0.3446    1.1680   59.3409 O.3     1  ZINC000062291520   -0.3100
     10 C10        -1.0274    2.1995   58.6254 C.3     1  ZINC000062291520    0.0700
     11 C11        -0.8733    1.9647   57.1214 C.3     1  ZINC000062291520   -0.1400
     12 C12        -1.5843    3.0585   56.3668 C.2     1  ZINC000062291520    0.5200
     13 O13        -1.7134    4.1555   56.8676 O.2     1  ZINC000062291520   -0.5400
     14 N14        -2.0766    2.8175   55.1356 N.am    1  ZINC000062291520   -0.7200
     15 C15        -2.7662    3.8813   54.4014 C.3     1  ZINC000062291520    0.1600
     16 C16        -2.7175    3.5852   52.9245 C.ar    1  ZINC000062291520   -0.1100
     17 C17        -3.7732    2.9339   52.3151 C.ar    1  ZINC000062291520   -0.1000
     18 C18        -3.7287    2.6628   50.9600 C.ar    1  ZINC000062291520   -0.1200
     19 C19        -2.6284    3.0429   50.2150 C.ar    1  ZINC000062291520   -0.0900
     20 C20        -1.5721    3.6940   50.8247 C.ar    1  ZINC000062291520   -0.0800
     21 C21        -0.3722    4.1081   50.0124 C.3     1  ZINC000062291520    0.0900
     22 N22        -0.0010    3.0204   49.0976 N.3     1  ZINC000062291520   -0.5300
     23 C23         0.6940    3.5432   47.9122 C.3     1  ZINC000062291520    0.0100
     24 C24         1.0087    2.3861   46.9603 C.3     1  ZINC000062291520    0.0600
     25 O25         1.7833    1.4032   47.6524 O.3     1  ZINC000062291520   -0.3800
     26 C26         1.1362    0.8722   48.8120 C.3     1  ZINC000062291520    0.0900
     27 H27         0.2098    0.3789   48.5180 H       1  ZINC000062291520    0.0700
     28 C28         2.0595   -0.1394   49.4940 C.3     1  ZINC000062291520   -0.1500
     29 C29         0.8228    2.0138   49.7827 C.3     1  ZINC000062291520    0.0200
     30 C30        -1.6191    3.9702   52.1782 C.ar    1  ZINC000062291520   -0.0900
     31 H31         2.2554   -1.2256   62.3467 H       1  ZINC000062291520    0.0500
     32 H32         0.7941   -2.2405   62.2897 H       1  ZINC000062291520    0.0600
     33 H33         2.0769   -2.4584   61.0752 H       1  ZINC000062291520    0.1000
     34 H34         0.6125   -0.4999   63.4324 H       1  ZINC000062291520    0.1400
     35 H35        -0.6788    1.2802   64.5385 H       1  ZINC000062291520    0.1300
     36 H36        -1.8100    3.0020   63.1947 H       1  ZINC000062291520    0.1300
     37 H37        -1.6538    2.9530   60.7385 H       1  ZINC000062291520    0.1400
     38 H38        -0.6003    3.1674   58.8877 H       1  ZINC000062291520    0.0700
     39 H39        -2.0850    2.1856   58.8889 H       1  ZINC000062291520    0.0700
     40 H40        -1.3073    1.0002   56.8579 H       1  ZINC000062291520    0.1100
     41 H41         0.1847    1.9709   56.8592 H       1  ZINC000062291520    0.1100
     42 H42        -1.9743    1.9398   54.7356 H       1  ZINC000062291520    0.4000
     43 H43        -3.8049    3.9333   54.7274 H       1  ZINC000062291520    0.0800
     44 H44        -2.2756    4.8348   54.5971 H       1  ZINC000062291520    0.0800
     45 H45        -4.6331    2.6373   52.8972 H       1  ZINC000062291520    0.1200
     46 H46        -4.5539    2.1542   50.4837 H       1  ZINC000062291520    0.1300
     47 H47        -2.5937    2.8311   49.1565 H       1  ZINC000062291520    0.1200
     48 H48        -0.6145    5.0010   49.4360 H       1  ZINC000062291520    0.0500
     49 H49         0.4623    4.3221   50.6802 H       1  ZINC000062291520    0.0900
     50 H50         0.0558    4.2676   47.4061 H       1  ZINC000062291520    0.0900
     51 H51         1.6218    4.0265   48.2179 H       1  ZINC000062291520    0.0400
     52 H52         0.0781    1.9375   46.6125 H       1  ZINC000062291520    0.0600
     53 H53         1.5742    2.7604   46.1069 H       1  ZINC000062291520    0.1000
     54 H54         2.9851    0.3548   49.7891 H       1  ZINC000062291520    0.0600
     55 H55         1.5658   -0.5438   50.3777 H       1  ZINC000062291520    0.0700
     56 H56         2.2853   -0.9500   48.8011 H       1  ZINC000062291520    0.0700
     57 H57         1.7532    2.4720   50.1183 H       1  ZINC000062291520    0.0400
     58 H58         0.2787    1.6220   50.6420 H       1  ZINC000062291520    0.0900
     59 H59        -0.7961    4.4830   52.6535 H       1  ZINC000062291520    0.1200
@<TRIPOS>BOND
     1     1     2    1
     2     1    31    1
     3     1    32    1
     4     1    33    1
     5     2     3    1
     6     3     8   ar
     7     3     4   ar
     8     4     5   ar
     9     4    34    1
    10     5     6   ar
    11     5    35    1
    12     6     7   ar
    13     6    36    1
    14     7     8   ar
    15     7    37    1
    16     8     9    1
    17     9    10    1
    18    10    11    1
    19    10    38    1
    20    10    39    1
    21    11    12    1
    22    11    40    1
    23    11    41    1
    24    12    13    2
    25    12    14   am
    26    14    15    1
    27    14    42    1
    28    15    16    1
    29    15    43    1
    30    15    44    1
    31    16    30   ar
    32    16    17   ar
    33    17    18   ar
    34    17    45    1
    35    18    19   ar
    36    18    46    1
    37    19    20   ar
    38    19    47    1
    39    20    21    1
    40    20    30   ar
    41    21    22    1
    42    21    48    1
    43    21    49    1
    44    22    29    1
    45    22    23    1
    46    23    24    1
    47    23    50    1
    48    23    51    1
    49    24    25    1
    50    24    52    1
    51    24    53    1
    52    25    26    1
    53    26    27    1
    54    26    28    1
    55    26    29    1
    56    28    54    1
    57    28    55    1
    58    28    56    1
    59    29    57    1
    60    29    58    1
    61    30    59    1
@<TRIPOS>SUBSTRUCTURE
     1 ZINC000062291520        1 TEMP              0 ****  ****    0 ROOT


##########                                Name:    ZINC000766421809
##########                DOCK_Rotatable_Bonds:                   7
##########                         Heavy_Atoms:                  26
##########                    Molecular_Weight:             358.372
##########                DOCK_Rotatable_Bonds:                   7
##########                       Formal_Charge:         4.61936e-07
##########                     HBond_Acceptors:                   8
##########                        HBond_Donors:                   0
##########                         Heavy_Atoms:                  26
##########                          Grid_Score:          -35.523998
##########                     Grid_vdw_energy:          -34.656670
##########                      Grid_es_energy:           -0.867329
##########           Internal_energy_repulsive:            3.570427

@<TRIPOS>MOLECULE
ZINC000766421809
 45 47 1 0 0
SMALL
USER_CHARGES


@<TRIPOS>ATOM
      1 C1          2.6238   -0.7484   48.7046 C.3     1  ZINC000766421809   -0.0700
      2 C2          1.5378    0.2957   48.7457 C.2     1  ZINC000766421809    0.0700
      3 N3          0.8441    0.7217   47.7215 N.2     1  ZINC000766421809   -0.2900
      4 N4         -0.0614    1.6883   48.1778 N.pl3   1  ZINC000766421809   -0.3700
      5 C5         -1.0279    2.4203   47.3554 C.3     1  ZINC000766421809    0.1000
      6 C6          0.1138    1.8262   49.5087 C.2     1  ZINC000766421809    0.0700
      7 C7         -0.6488    2.7593   50.4134 C.3     1  ZINC000766421809    0.1400
      8 O8         -2.0344    2.3325   50.4918 O.3     1  ZINC000766421809   -0.3400
      9 C9         -2.8925    3.1592   51.1100 C.2     1  ZINC000766421809    0.4700
     10 O10        -2.6552    4.3424   51.1690 O.2     1  ZINC000766421809   -0.5000
     11 C11        -4.1519    2.6113   51.7303 C.3     1  ZINC000766421809   -0.1100
     12 C12        -5.2487    2.5256   50.6669 C.3     1  ZINC000766421809   -0.0200
     13 C13        -6.3406    1.6034   51.1445 C.2     1  ZINC000766421809    0.1900
     14 N14        -7.5284    1.9578   51.5675 N.2     1  ZINC000766421809   -0.4700
     15 C15        -8.1590    0.8050   51.8874 C.2     1  ZINC000766421809    0.2200
     16 C16        -9.5388    0.6732   52.4170 C.ar    1  ZINC000766421809   -0.0300
     17 C17       -10.5348    1.5530   51.9980 C.ar    1  ZINC000766421809   -0.0500
     18 C18       -11.8168    1.4266   52.4925 C.ar    1  ZINC000766421809   -0.1500
     19 C19       -12.1140    0.4272   53.4048 C.ar    1  ZINC000766421809    0.1200
     20 F20       -13.3703    0.3072   53.8869 F       1  ZINC000766421809   -0.1300
     21 C21       -11.1264   -0.4502   53.8238 C.ar    1  ZINC000766421809   -0.1200
     22 C22       -11.4559   -1.5360   54.8155 C.3     1  ZINC000766421809   -0.1200
     23 C23        -9.8435   -0.3343   53.3304 C.ar    1  ZINC000766421809   -0.0600
     24 N24        -7.3249   -0.1720   51.6421 N.2     1  ZINC000766421809   -0.3700
     25 O25        -6.2809    0.2697   51.2106 O.3     1  ZINC000766421809    0.0900
     26 C26         1.0933    0.9722   49.8864 C.2     1  ZINC000766421809   -0.2400
     27 H27         2.1856   -1.7347   48.8575 H       1  ZINC000766421809    0.0800
     28 H28         3.1206   -0.7180   47.7348 H       1  ZINC000766421809    0.0700
     29 H29         3.3507   -0.5477   49.4917 H       1  ZINC000766421809    0.0800
     30 H30        -1.9665    1.8674   47.3191 H       1  ZINC000766421809    0.0800
     31 H31        -1.2026    3.4047   47.7896 H       1  ZINC000766421809    0.0900
     32 H32        -0.6336    2.5334   46.3455 H       1  ZINC000766421809    0.0900
     33 H33        -0.2063    2.7420   51.4094 H       1  ZINC000766421809    0.0900
     34 H34        -0.6026    3.7720   50.0130 H       1  ZINC000766421809    0.0900
     35 H35        -3.9566    1.6169   52.1316 H       1  ZINC000766421809    0.1200
     36 H36        -4.4771    3.2705   52.5352 H       1  ZINC000766421809    0.1200
     37 H37        -5.6627    3.5185   50.4912 H       1  ZINC000766421809    0.1200
     38 H38        -4.8262    2.1389   49.7395 H       1  ZINC000766421809    0.1200
     39 H39       -10.3038    2.3328   51.2873 H       1  ZINC000766421809    0.1500
     40 H40       -12.5894    2.1080   52.1683 H       1  ZINC000766421809    0.1500
     41 H41       -11.7711   -2.4323   54.2815 H       1  ZINC000766421809    0.0800
     42 H42       -10.5734   -1.7612   55.4143 H       1  ZINC000766421809    0.0800
     43 H43       -12.2616   -1.1996   55.4681 H       1  ZINC000766421809    0.0700
     44 H44        -9.0745   -1.0184   53.6575 H       1  ZINC000766421809    0.1400
     45 H45         1.4695    0.8408   50.8901 H       1  ZINC000766421809    0.1500
@<TRIPOS>BOND
     1     1     2    1
     2     1    27    1
     3     1    28    1
     4     1    29    1
     5     2    26    1
     6     2     3    2
     7     3     4    1
     8     4     5    1
     9     4     6    1
    10     5    30    1
    11     5    31    1
    12     5    32    1
    13     6     7    1
    14     6    26    2
    15     7     8    1
    16     7    33    1
    17     7    34    1
    18     8     9    1
    19     9    10    2
    20     9    11    1
    21    11    12    1
    22    11    35    1
    23    11    36    1
    24    12    13    1
    25    12    37    1
    26    12    38    1
    27    13    25    1
    28    13    14    2
    29    14    15    1
    30    15    16    1
    31    15    24    2
    32    16    23   ar
    33    16    17   ar
    34    17    18   ar
    35    17    39    1
    36    18    19   ar
    37    18    40    1
    38    19    20    1
    39    19    21   ar
    40    21    22    1
    41    21    23   ar
    42    22    41    1
    43    22    42    1
    44    22    43    1
    45    23    44    1
    46    24    25    1
    47    26    45    1
@<TRIPOS>SUBSTRUCTURE
     1 ZINC000766421809        1 TEMP              0 ****  ****    0 ROOT


##########                                Name:     oleObject80.pdb
##########                DOCK_Rotatable_Bonds:                  14
##########                         Heavy_Atoms:                  51
##########                    Molecular_Weight:             703.283
##########                DOCK_Rotatable_Bonds:                  14
##########                       Formal_Charge:         0.000299793
##########                     HBond_Acceptors:                  10
##########                        HBond_Donors:                   3
##########                         Heavy_Atoms:                  51
##########                          Grid_Score:          -35.279087
##########                     Grid_vdw_energy:          -35.273129
##########                      Grid_es_energy:           -0.005957
##########           Internal_energy_repulsive:           60.037582

@<TRIPOS>MOLECULE
oleObject80.pdb
 94 99 1 0 0
SMALL
NO_CHARGES


@<TRIPOS>ATOM
      1 C         -13.5566    0.2420   47.7085 C.ar    1  UNL        -0.0620
      2 C         -12.6928    1.3455   47.7512 C.ar    1  UNL        -0.0590
      3 C         -12.7147    2.2354   48.8427 C.ar    1  UNL        -0.0456
      4 C         -13.6208    2.0154   49.9113 C.ar    1  UNL        -0.0185
      5 C         -14.4831    0.8977   49.8538 C.ar    1  UNL        -0.0565
      6 C         -14.4517    0.0178   48.7621 C.ar    1  UNL        -0.0619
      7 C         -13.6732    2.9758   51.1129 C.3     1  UNL         0.0931
      8 C         -14.5402    4.2247   50.8731 C.ar    1  UNL         0.0683
      9 C         -15.8033    4.1399   50.2344 C.ar    1  UNL        -0.0272
     10 C         -16.5389    5.3245   50.0428 C.ar    1  UNL        -0.0559
     11 C         -16.0052    6.5413   50.4910 C.ar    1  UNL        -0.0435
     12 C         -14.7523    6.5335   51.1210 C.ar    1  UNL         0.0272
     13 N         -14.0414    5.4061   51.3088 N.ar    1  UNL        -0.2587
     14 C         -16.3859    2.8151   49.7542 C.3     1  UNL        -0.0379
     15 N         -13.9470    2.3044   52.4163 N.am    1  UNL        -0.2918
     16 C         -12.9086    1.7066   53.1395 C.2     1  UNL         0.2180
     17 O         -13.1503    0.9377   54.0557 O.2     1  UNL        -0.2772
     18 C         -11.4878    1.7782   52.5258 C.3     1  UNL         0.0385
     19 C         -10.6258    0.5515   52.9136 C.3     1  UNL        -0.0289
     20 C         -10.1778    0.6067   54.3886 C.3     1  UNL        -0.0010
     21 N          -9.4270    1.8458   54.6839 N.4     1  UNL        -0.3010
     22 C         -10.1854    3.0770   54.3562 C.3     1  UNL        -0.0010
     23 C         -10.7273    3.0771   52.9042 C.3     1  UNL        -0.0289
     24 C          -8.8672    1.8255   56.0536 C.3     1  UNL         0.0222
     25 C          -7.5825    2.6657   56.2055 C.3     1  UNL         0.0661
     26 O          -6.5224    1.9736   55.5220 O.3     1  UNL        -0.3432
     27 C          -5.4450    2.6124   54.9386 C.ar    1  UNL         0.0937
     28 C          -4.3258    3.0294   55.6874 C.ar    1  UNL        -0.0284
     29 C          -3.2526    3.6771   55.0537 C.ar    1  UNL        -0.0381
     30 C          -3.2697    3.9067   53.6672 C.ar    1  UNL         0.0319
     31 C          -4.3982    3.5092   52.9243 C.ar    1  UNL        -0.0194
     32 C          -5.4749    2.8623   53.5530 C.ar    1  UNL         0.0727
     33 CL         -6.8555    2.3833   52.5832 Cl      1  UNL        -0.0814
     34 N          -2.1911    4.5685   53.0832 N.pl3   1  UNL        -0.3136
     35 C          -1.4892    4.3334   51.9014 C.ar    1  UNL         0.0489
     36 C          -1.3931    3.0231   51.4004 C.ar    1  UNL         0.0488
     37 N          -0.7499    2.7144   50.2567 N.ar    1  UNL        -0.2543
     38 C          -0.1706    3.6897   49.5225 C.ar    1  UNL         0.0703
     39 C          -0.2387    5.0410   49.9505 C.ar    1  UNL        -0.0339
     40 C          -0.9057    5.3647   51.1429 C.ar    1  UNL        -0.0371
     41 C           0.5238    3.2680   48.2550 C.ar    1  UNL         0.0009
     42 C           0.9815    1.9381   48.0641 C.ar    1  UNL        -0.0402
     43 C           1.6339    1.5308   46.8816 C.ar    1  UNL         0.0375
     44 C           1.8372    2.4794   45.8579 C.ar    1  UNL        -0.0496
     45 C           1.4003    3.8013   46.0211 C.ar    1  UNL        -0.0608
     46 C           0.7546    4.1913   47.2031 C.ar    1  UNL        -0.0528
     47 C           2.0966    0.1002   46.7455 C.2     1  UNL         0.2403
     48 O           1.3746   -0.8470   47.0000 O.2     1  UNL        -0.2722
     49 N           3.3889   -0.1123   46.3140 N.am    1  UNL        -0.3251
     50 C         -15.3310    2.3751   52.9367 C.3     1  UNL         0.0037
     51 C         -11.7486    3.4166   48.8365 C.3     1  UNL        -0.0394
     52 H         -13.5303   -0.4380   46.8619 H       1  UNL         0.0623
     53 H         -12.0015    1.5082   46.9290 H       1  UNL         0.0626
     54 H         -15.1809    0.6958   50.6602 H       1  UNL         0.0627
     55 H         -15.1205   -0.8378   48.7346 H       1  UNL         0.0623
     56 H         -12.6553    3.3660   51.1919 H       1  UNL         0.0626
     57 H         -17.5091    5.3036   49.5546 H       1  UNL         0.0627
     58 H         -16.5514    7.4701   50.3557 H       1  UNL         0.0639
     59 H         -14.3037    7.4564   51.4860 H       1  UNL         0.0840
     60 H         -15.7996    2.4070   48.9214 H       1  UNL         0.0280
     61 H         -17.4188    2.9312   49.4031 H       1  UNL         0.0280
     62 H         -16.3979    2.0706   50.5598 H       1  UNL         0.0280
     63 H         -11.5988    1.7913   51.4354 H       1  UNL         0.0402
     64 H          -9.7332    0.5239   52.2754 H       1  UNL         0.0288
     65 H         -11.1680   -0.3819   52.7283 H       1  UNL         0.0288
     66 H          -9.5488   -0.2691   54.5941 H       1  UNL         0.0431
     67 H         -11.0619    0.5406   55.0373 H       1  UNL         0.0431
     68 H          -9.5474    3.9607   54.4738 H       1  UNL         0.0431
     69 H         -11.0221    3.1857   55.0574 H       1  UNL         0.0431
     70 H          -9.8752    3.1925   52.2218 H       1  UNL         0.0288
     71 H         -11.3718    3.9512   52.7466 H       1  UNL         0.0288
     72 H          -8.6228    0.7908   56.3274 H       1  UNL         0.0455
     73 H          -9.6176    2.1871   56.7688 H       1  UNL         0.0455
     74 H          -7.3304    2.7831   57.2664 H       1  UNL         0.0586
     75 H          -7.7392    3.6561   55.7595 H       1  UNL         0.0586
     76 H          -4.2759    2.8600   56.7580 H       1  UNL         0.0652
     77 H          -2.3972    3.9940   55.6440 H       1  UNL         0.0644
     78 H          -4.4572    3.7174   51.8607 H       1  UNL         0.0659
     79 H          -1.8504    5.3579   53.6171 H       1  UNL         0.1528
     80 H          -1.8392    2.1879   51.9387 H       1  UNL         0.0861
     81 H           0.2248    5.8361   49.3768 H       1  UNL         0.0646
     82 H          -0.9789    6.4019   51.4544 H       1  UNL         0.0644
     83 H           0.8453    1.2084   48.8547 H       1  UNL         0.0638
     84 H           2.3342    2.2067   44.9322 H       1  UNL         0.0631
     85 H           1.5611    4.5268   45.2286 H       1  UNL         0.0623
     86 H           0.4224    5.2214   47.2956 H       1  UNL         0.0630
     87 H           3.7392   -1.0550   46.2091 H       1  UNL         0.1458
     88 H           3.9741    0.6865   46.1049 H       1  UNL         0.1458
     89 H         -16.0213    2.8035   52.2025 H       1  UNL         0.0433
     90 H         -15.3657    3.0046   53.8335 H       1  UNL         0.0433
     91 H         -15.6781    1.3661   53.1919 H       1  UNL         0.0433
     92 H         -11.0972    3.4039   47.9538 H       1  UNL         0.0280
     93 H         -11.0969    3.4018   49.7184 H       1  UNL         0.0280
     94 H         -12.2886    4.3715   48.8272 H       1  UNL         0.0280
@<TRIPOS>BOND
     1     1     2   ar
     2     1     6   ar
     3     1    52    1
     4     2     3   ar
     5     2    53    1
     6     3     4   ar
     7     3    51    1
     8     4     5   ar
     9     4     7    1
    10     5     6   ar
    11     5    54    1
    12     6    55    1
    13     7     8    1
    14     7    15    1
    15     7    56    1
    16     8     9   ar
    17     8    13   ar
    18     9    10   ar
    19     9    14    1
    20    10    11   ar
    21    10    57    1
    22    11    12   ar
    23    11    58    1
    24    12    13   ar
    25    12    59    1
    26    14    60    1
    27    14    61    1
    28    14    62    1
    29    15    16   am
    30    15    50    1
    31    16    17    2
    32    16    18    1
    33    18    19    1
    34    18    23    1
    35    18    63    1
    36    19    20    1
    37    19    64    1
    38    19    65    1
    39    20    21    1
    40    20    66    1
    41    20    67    1
    42    21    22    1
    43    21    24    1
    44    22    23    1
    45    22    68    1
    46    22    69    1
    47    23    70    1
    48    23    71    1
    49    24    25    1
    50    24    72    1
    51    24    73    1
    52    25    26    1
    53    25    74    1
    54    25    75    1
    55    26    27    1
    56    27    28   ar
    57    27    32   ar
    58    28    29   ar
    59    28    76    1
    60    29    30   ar
    61    29    77    1
    62    30    31   ar
    63    30    34    1
    64    31    32   ar
    65    31    78    1
    66    32    33    1
    67    34    35    1
    68    34    79    1
    69    35    36   ar
    70    35    40   ar
    71    36    37   ar
    72    36    80    1
    73    37    38   ar
    74    38    39   ar
    75    38    41    1
    76    39    40   ar
    77    39    81    1
    78    40    82    1
    79    41    42   ar
    80    41    46   ar
    81    42    43   ar
    82    42    83    1
    83    43    44   ar
    84    43    47    1
    85    44    45   ar
    86    44    84    1
    87    45    46   ar
    88    45    85    1
    89    46    86    1
    90    47    48    2
    91    47    49   am
    92    49    87    1
    93    49    88    1
    94    50    89    1
    95    50    90    1
    96    50    91    1
    97    51    92    1
    98    51    93    1
    99    51    94    1
@<TRIPOS>SUBSTRUCTURE
     1 UNL         1 TEMP              0 ****  ****    0 ROOT


##########                                Name:    ZINC000508765459
##########                DOCK_Rotatable_Bonds:                  10
##########                         Heavy_Atoms:                  29
##########                    Molecular_Weight:               405.5
##########                DOCK_Rotatable_Bonds:                  10
##########                       Formal_Charge:         -6.4075e-07
##########                     HBond_Acceptors:                  10
##########                        HBond_Donors:                   1
##########                         Heavy_Atoms:                  29
##########                          Grid_Score:          -35.221066
##########                     Grid_vdw_energy:          -34.400654
##########                      Grid_es_energy:           -0.820411
##########           Internal_energy_repulsive:           11.617590

@<TRIPOS>MOLECULE
ZINC000508765459
 60 62 1 0 0
SMALL
USER_CHARGES


@<TRIPOS>ATOM
      1 C1        -13.5762    0.2012   48.5583 C.3     1  ZINC000508765459    0.0300
      2 O2        -13.4140    0.2807   49.9758 O.3     1  ZINC000508765459   -0.3900
      3 C3        -12.0672    0.5100   50.3947 C.3     1  ZINC000508765459    0.0500
      4 C4        -11.9859    0.4244   51.9202 C.3     1  ZINC000508765459    0.1100
      5 N5        -10.7339    1.0322   52.3774 N.am    1  ZINC000508765459   -0.5900
      6 C6        -10.7725    2.4253   52.8008 C.3     1  ZINC000508765459    0.1000
      7 C7         -9.5944    2.7449   53.7231 C.3     1  ZINC000508765459    0.1200
      8 N8         -8.3711    2.1972   53.1128 N.am    1  ZINC000508765459   -0.6400
      9 C9         -7.3468    2.9971   52.7561 C.2     1  ZINC000508765459    0.7100
     10 O10        -7.4207    4.1971   52.9378 O.2     1  ZINC000508765459   -0.5800
     11 N11        -6.2405    2.4668   52.1981 N.am    1  ZINC000508765459   -0.7400
     12 C12        -5.1262    3.3362   51.8120 C.3     1  ZINC000508765459    0.1400
     13 C13        -3.8302    2.5232   51.7865 C.3     1  ZINC000508765459   -0.1400
     14 C14        -2.6845    3.4055   51.2867 C.3     1  ZINC000508765459    0.0600
     15 N15        -1.7416    2.5899   50.5098 N.3     1  ZINC000508765459   -0.5400
     16 C16        -0.3524    2.8952   50.8794 C.3     1  ZINC000508765459    0.0500
     17 C17         0.5928    1.9713   50.1078 C.3     1  ZINC000508765459    0.0700
     18 N18         0.3824    2.1541   48.6649 N.3     1  ZINC000508765459   -0.4600
     19 C19         1.2709    1.3855   47.9329 C.ar    1  ZINC000508765459    0.4900
     20 N20         1.7441    0.2658   48.4599 N.ar    1  ZINC000508765459   -0.5500
     21 C21         2.5943   -0.4918   47.7869 C.ar    1  ZINC000508765459    0.1700
     22 C22         2.9885   -0.1013   46.5168 C.ar    1  ZINC000508765459   -0.2600
     23 C23         2.4742    1.0756   45.9957 C.ar    1  ZINC000508765459    0.1700
     24 N24         1.6237    1.7843   46.7197 N.ar    1  ZINC000508765459   -0.5300
     25 C25        -1.0067    1.8488   48.2952 C.3     1  ZINC000508765459    0.0700
     26 C26        -1.9519    2.7726   49.0669 C.3     1  ZINC000508765459    0.0600
     27 C27        -8.3126    0.7421   52.9089 C.3     1  ZINC000508765459    0.1000
     28 C28        -9.6396    0.2695   52.3817 C.2     1  ZINC000508765459    0.5100
     29 O29        -9.7164   -0.8541   51.9319 O.2     1  ZINC000508765459   -0.5400
     30 H30       -12.9742   -0.6200   48.1692 H       1  ZINC000508765459    0.0400
     31 H31       -14.6258    0.0259   48.3219 H       1  ZINC000508765459    0.0900
     32 H32       -13.2524    1.1369   48.1024 H       1  ZINC000508765459    0.0400
     33 H33       -11.4159   -0.2444   49.9533 H       1  ZINC000508765459    0.0500
     34 H34       -11.7489    1.5003   50.0689 H       1  ZINC000508765459    0.0600
     35 H35       -12.8298    0.9564   52.3595 H       1  ZINC000508765459    0.1100
     36 H36       -12.0158   -0.6211   52.2275 H       1  ZINC000508765459    0.0900
     37 H37       -10.7253    3.0688   51.9224 H       1  ZINC000508765459    0.0700
     38 H38       -11.7054    2.6129   53.3324 H       1  ZINC000508765459    0.1000
     39 H39        -9.4977    3.8248   53.8354 H       1  ZINC000508765459    0.1200
     40 H40        -9.7559    2.2861   54.6985 H       1  ZINC000508765459    0.0800
     41 H41        -6.1820    1.5097   52.0521 H       1  ZINC000508765459    0.4000
     42 H42        -5.3148    3.7504   50.8215 H       1  ZINC000508765459    0.0700
     43 H43        -5.0318    4.1478   52.5334 H       1  ZINC000508765459    0.0700
     44 H44        -3.6039    2.1689   52.7922 H       1  ZINC000508765459    0.0700
     45 H45        -3.9497    1.6700   51.1189 H       1  ZINC000508765459    0.0800
     46 H46        -3.0853    4.1983   50.6551 H       1  ZINC000508765459    0.0800
     47 H47        -2.1671    3.8464   52.1388 H       1  ZINC000508765459    0.0400
     48 H48        -0.1297    3.9329   50.6311 H       1  ZINC000508765459    0.0500
     49 H49        -0.2187    2.7403   51.9500 H       1  ZINC000508765459    0.0900
     50 H50         1.6250    2.2154   50.3586 H       1  ZINC000508765459    0.0900
     51 H51         0.3882    0.9349   50.3767 H       1  ZINC000508765459    0.0600
     52 H52         2.9767   -1.4032   48.2219 H       1  ZINC000508765459    0.1700
     53 H53         3.6818   -0.7010   45.9456 H       1  ZINC000508765459    0.1500
     54 H54         2.7615    1.4081   45.0092 H       1  ZINC000508765459    0.1700
     55 H55        -1.1406    2.0036   47.2246 H       1  ZINC000508765459    0.1000
     56 H56        -1.2294    0.8111   48.5436 H       1  ZINC000508765459    0.0500
     57 H57        -2.9841    2.5284   48.8160 H       1  ZINC000508765459    0.0900
     58 H58        -1.7474    3.8090   48.7979 H       1  ZINC000508765459    0.0500
     59 H59        -7.5265    0.5053   52.1919 H       1  ZINC000508765459    0.1100
     60 H60        -8.1041    0.2486   53.8581 H       1  ZINC000508765459    0.1100
@<TRIPOS>BOND
     1     1     2    1
     2     1    30    1
     3     1    31    1
     4     1    32    1
     5     2     3    1
     6     3     4    1
     7     3    33    1
     8     3    34    1
     9     4     5    1
    10     4    35    1
    11     4    36    1
    12     5    28   am
    13     5     6    1
    14     6     7    1
    15     6    37    1
    16     6    38    1
    17     7     8    1
    18     7    39    1
    19     7    40    1
    20     8     9   am
    21     8    27    1
    22     9    10    2
    23     9    11   am
    24    11    12    1
    25    11    41    1
    26    12    13    1
    27    12    42    1
    28    12    43    1
    29    13    14    1
    30    13    44    1
    31    13    45    1
    32    14    15    1
    33    14    46    1
    34    14    47    1
    35    15    26    1
    36    15    16    1
    37    16    17    1
    38    16    48    1
    39    16    49    1
    40    17    18    1
    41    17    50    1
    42    17    51    1
    43    18    19    1
    44    18    25    1
    45    19    24   ar
    46    19    20   ar
    47    20    21   ar
    48    21    22   ar
    49    21    52    1
    50    22    23   ar
    51    22    53    1
    52    23    24   ar
    53    23    54    1
    54    25    26    1
    55    25    55    1
    56    25    56    1
    57    26    57    1
    58    26    58    1
    59    27    28    1
    60    27    59    1
    61    27    60    1
    62    28    29    2
@<TRIPOS>SUBSTRUCTURE
     1 ZINC000508765459        1 TEMP              0 ****  ****    0 ROOT


##########                                Name:    ZINC000474251633
##########                DOCK_Rotatable_Bonds:                   8
##########                         Heavy_Atoms:                  28
##########                    Molecular_Weight:             416.931
##########                DOCK_Rotatable_Bonds:                   8
##########                       Formal_Charge:          0.00999953
##########                     HBond_Acceptors:                   8
##########                        HBond_Donors:                   2
##########                         Heavy_Atoms:                  28
##########                          Grid_Score:          -35.156879
##########                     Grid_vdw_energy:          -34.163593
##########                      Grid_es_energy:           -0.993288
##########           Internal_energy_repulsive:            8.793858

@<TRIPOS>MOLECULE
ZINC000474251633
 49 52 1 0 0
SMALL
USER_CHARGES


@<TRIPOS>ATOM
      1 O1         -5.3551    3.0342   52.2598 O.2     1  ZINC000474251633   -0.5300
      2 C2         -5.1971    2.2574   51.3420 C.2     1  ZINC000474251633    0.5100
      3 C3         -6.3678    1.4714   50.8101 C.3     1  ZINC000474251633    0.1000
      4 N4         -7.1359    0.9214   51.9297 N.am    1  ZINC000474251633   -0.7100
      5 C5         -8.3025    1.4915   52.2912 C.2     1  ZINC000474251633    0.5900
      6 O6         -8.7184    2.4620   51.6866 O.2     1  ZINC000474251633   -0.5000
      7 C7         -9.0715    0.9412   53.4145 C.2     1  ZINC000474251633   -0.2300
      8 C8         -9.9039   -0.1030   53.3278 C.2     1  ZINC000474251633    0.0400
      9 Cl9       -10.1760   -0.9493   51.8366 Cl      1  ZINC000474251633   -0.0100
     10 C10       -10.5428   -0.4691   54.5250 C.ar    1  ZINC000474251633   -0.0900
     11 C11       -11.4666   -1.5162   54.7538 C.ar    1  ZINC000474251633   -0.0600
     12 C12       -11.9848   -1.7204   55.9942 C.ar    1  ZINC000474251633   -0.1200
     13 C13       -11.6179   -0.9066   57.0587 C.ar    1  ZINC000474251633   -0.0800
     14 C14       -10.7232    0.1189   56.8679 C.ar    1  ZINC000474251633   -0.0900
     15 C15       -10.1761    0.3485   55.6014 C.ar    1  ZINC000474251633   -0.1200
     16 S16        -9.0196    1.5579   55.0565 S.3     1  ZINC000474251633    0.1700
     17 N17        -3.9757    2.1010   50.7940 N.am    1  ZINC000474251633   -0.7200
     18 C18        -2.8378    2.8650   51.3111 C.3     1  ZINC000474251633    0.2100
     19 C19        -1.7634    2.9416   50.2570 C.2     1  ZINC000474251633    0.0500
     20 N20        -1.6732    2.1802   49.1969 N.2     1  ZINC000474251633   -0.2700
     21 N21        -0.5386    2.5700   48.4734 N.pl3   1  ZINC000474251633   -0.3600
     22 C22        -0.0701    1.9756   47.2190 C.3     1  ZINC000474251633    0.1500
     23 C23         0.7391    3.0124   46.4129 C.3     1  ZINC000474251633   -0.1400
     24 C24         2.2130    2.7187   46.7877 C.3     1  ZINC000474251633   -0.1300
     25 C25         2.2412    1.1726   46.8775 C.3     1  ZINC000474251633   -0.1200
     26 C26         0.8849    0.8058   47.5144 C.3     1  ZINC000474251633   -0.1400
     27 C27         0.0463    3.5897   49.1360 C.2     1  ZINC000474251633    0.0600
     28 C28        -0.6942    3.8431   50.2399 C.2     1  ZINC000474251633   -0.2600
     29 H29        -7.0068    2.1269   50.2183 H       1  ZINC000474251633    0.1100
     30 H30        -6.0041    0.6566   50.1840 H       1  ZINC000474251633    0.1100
     31 H31        -6.8049    0.1470   52.4109 H       1  ZINC000474251633    0.4100
     32 H32       -11.7625   -2.1578   53.9371 H       1  ZINC000474251633    0.1300
     33 H33       -12.6892   -2.5234   56.1534 H       1  ZINC000474251633    0.1400
     34 H34       -12.0374   -1.0801   58.0386 H       1  ZINC000474251633    0.1400
     35 H35       -10.4415    0.7493   57.6985 H       1  ZINC000474251633    0.1400
     36 H36        -3.8502    1.4826   50.0573 H       1  ZINC000474251633    0.4100
     37 H37        -3.1641    3.8720   51.5710 H       1  ZINC000474251633    0.0900
     38 H38        -2.4415    2.3712   52.1983 H       1  ZINC000474251633    0.0900
     39 H39        -0.9192    1.6254   46.6320 H       1  ZINC000474251633    0.1100
     40 H40         0.5820    2.8712   45.3435 H       1  ZINC000474251633    0.0900
     41 H41         0.4646    4.0248   46.7093 H       1  ZINC000474251633    0.0800
     42 H42         2.8877    3.0728   46.0083 H       1  ZINC000474251633    0.0800
     43 H43         2.4635    3.1661   47.7496 H       1  ZINC000474251633    0.0700
     44 H44         2.3267    0.7343   45.8832 H       1  ZINC000474251633    0.0700
     45 H45         3.0628    0.8423   47.5130 H       1  ZINC000474251633    0.0700
     46 H46         0.9997    0.6804   48.5911 H       1  ZINC000474251633    0.0700
     47 H47         0.4997   -0.1119   47.0702 H       1  ZINC000474251633    0.0800
     48 H48         0.9426    4.1128   48.8365 H       1  ZINC000474251633    0.1700
     49 H49        -0.4917    4.6030   50.9801 H       1  ZINC000474251633    0.1500
@<TRIPOS>BOND
     1     1     2    2
     2     2     3    1
     3     2    17   am
     4     3     4    1
     5     3    29    1
     6     3    30    1
     7     4     5   am
     8     4    31    1
     9     5     6    2
    10     5     7    1
    11     7    16    1
    12     7     8    2
    13     8     9    1
    14     8    10    1
    15    10    15   ar
    16    10    11   ar
    17    11    12   ar
    18    11    32    1
    19    12    13   ar
    20    12    33    1
    21    13    14   ar
    22    13    34    1
    23    14    15   ar
    24    14    35    1
    25    15    16    1
    26    17    18    1
    27    17    36    1
    28    18    19    1
    29    18    37    1
    30    18    38    1
    31    19    28    1
    32    19    20    2
    33    20    21    1
    34    21    22    1
    35    21    27    1
    36    22    26    1
    37    22    23    1
    38    22    39    1
    39    23    24    1
    40    23    40    1
    41    23    41    1
    42    24    25    1
    43    24    42    1
    44    24    43    1
    45    25    26    1
    46    25    44    1
    47    25    45    1
    48    26    46    1
    49    26    47    1
    50    27    28    2
    51    27    48    1
    52    28    49    1
@<TRIPOS>SUBSTRUCTURE
     1 ZINC000474251633        1 TEMP              0 ****  ****    0 ROOT


##########                                Name:     oleObject52.pdb
##########                DOCK_Rotatable_Bonds:                  10
##########                         Heavy_Atoms:                  38
##########                    Molecular_Weight:              533.07
##########                DOCK_Rotatable_Bonds:                  10
##########                       Formal_Charge:         0.000300027
##########                     HBond_Acceptors:                   8
##########                        HBond_Donors:                   0
##########                         Heavy_Atoms:                  38
##########                          Grid_Score:          -34.910698
##########                     Grid_vdw_energy:          -34.597015
##########                      Grid_es_energy:           -0.313683
##########           Internal_energy_repulsive:           28.965828

@<TRIPOS>MOLECULE
oleObject52.pdb
 71 74 1 0 0
SMALL
NO_CHARGES


@<TRIPOS>ATOM
      1 C         -14.5308   -1.5163   58.9558 C.ar    1  UNL        -0.0596
      2 C         -13.2552   -2.0172   58.6555 C.ar    1  UNL        -0.0314
      3 C         -12.1237   -1.1768   58.7263 C.ar    1  UNL         0.0800
      4 C         -12.2750    0.1773   59.1052 C.ar    1  UNL         0.0089
      5 C         -13.5656    0.6680   59.3985 C.ar    1  UNL        -0.0541
      6 C         -14.6858   -0.1736   59.3259 C.ar    1  UNL        -0.0617
      7 C         -11.0391    1.0873   59.1750 C.3     1  UNL         0.0953
      8 C          -9.9263    0.5000   60.0609 C.ar    1  UNL         0.0684
      9 C         -10.0566    0.4166   61.4700 C.ar    1  UNL        -0.0272
     10 C          -8.9984   -0.1450   62.2088 C.ar    1  UNL        -0.0559
     11 C          -7.8587   -0.6021   61.5317 C.ar    1  UNL        -0.0435
     12 C          -7.8148   -0.4846   60.1346 C.ar    1  UNL         0.0272
     13 N          -8.8213    0.0509   59.4192 N.ar    1  UNL        -0.2587
     14 C         -11.3035    0.8976   62.2021 C.3     1  UNL        -0.0379
     15 N         -10.5718    1.5881   57.8508 N.am    1  UNL        -0.2917
     16 C          -9.7038    2.6829   57.7775 C.2     1  UNL         0.2180
     17 O          -9.1181    3.0727   58.7740 O.2     1  UNL        -0.2772
     18 C          -9.2607    3.1469   56.3664 C.3     1  UNL         0.0385
     19 C          -8.2791    2.1477   55.7076 C.3     1  UNL        -0.0289
     20 C          -6.8706    2.2174   56.3362 C.3     1  UNL        -0.0010
     21 N          -6.3108    3.5872   56.2660 N.4     1  UNL        -0.3010
     22 C          -7.1825    4.5978   56.9045 C.3     1  UNL        -0.0010
     23 C          -8.6322    4.5658   56.3608 C.3     1  UNL        -0.0289
     24 C          -4.9154    3.6999   56.7455 C.3     1  UNL         0.0222
     25 C          -3.8717    3.2095   55.7208 C.3     1  UNL         0.0661
     26 O          -4.0953    3.9223   54.4912 O.3     1  UNL        -0.3432
     27 C          -3.5313    3.5594   53.2834 C.ar    1  UNL         0.0937
     28 C          -2.1483    3.6856   53.0352 C.ar    1  UNL        -0.0289
     29 C          -1.6151    3.3046   51.7926 C.ar    1  UNL        -0.0417
     30 C          -2.4554    2.7949   50.7878 C.ar    1  UNL         0.0537
     31 C          -3.8335    2.6672   51.0310 C.ar    1  UNL        -0.0230
     32 C          -4.3695    3.0473   52.2727 C.ar    1  UNL         0.0721
     33 CL         -6.0942    2.8731   52.5379 Cl      1  UNL        -0.0814
     34 C          -1.9086    2.4066   49.5196 C.1     1  UNL         0.0992
     35 N          -1.4583    2.0977   48.5001 N.1     1  UNL        -0.1924
     36 C         -11.0968    0.9027   56.6497 C.3     1  UNL         0.0037
     37 O         -10.8559   -1.6454   58.4263 O.3     1  UNL        -0.3490
     38 C         -10.5773   -2.9994   58.0319 C.3     1  UNL         0.0422
     39 H         -15.3978   -2.1681   58.8993 H       1  UNL         0.0624
     40 H         -13.1598   -3.0589   58.3685 H       1  UNL         0.0651
     41 H         -13.7111    1.7042   59.6838 H       1  UNL         0.0627
     42 H         -15.6732    0.2163   59.5559 H       1  UNL         0.0623
     43 H         -11.3914    1.9798   59.7040 H       1  UNL         0.0627
     44 H          -9.0596   -0.2313   63.2899 H       1  UNL         0.0627
     45 H          -7.0288   -1.0422   62.0765 H       1  UNL         0.0639
     46 H          -6.9502   -0.8316   59.5704 H       1  UNL         0.0840
     47 H         -11.5610    1.9224   61.9144 H       1  UNL         0.0280
     48 H         -11.1639    0.8888   63.2901 H       1  UNL         0.0280
     49 H         -12.1633    0.2551   61.9738 H       1  UNL         0.0280
     50 H         -10.1556    3.2085   55.7383 H       1  UNL         0.0402
     51 H          -8.1968    2.3814   54.6382 H       1  UNL         0.0288
     52 H          -8.6663    1.1243   55.7713 H       1  UNL         0.0288
     53 H          -6.2286    1.5095   55.7993 H       1  UNL         0.0431
     54 H          -6.9244    1.8932   57.3840 H       1  UNL         0.0431
     55 H          -6.7716    5.6014   56.7355 H       1  UNL         0.0431
     56 H          -7.1971    4.4336   57.9892 H       1  UNL         0.0431
     57 H          -8.6183    4.9378   55.3281 H       1  UNL         0.0288
     58 H          -9.2610    5.2602   56.9327 H       1  UNL         0.0288
     59 H          -4.7943    3.1348   57.6790 H       1  UNL         0.0455
     60 H          -4.6949    4.7524   56.9668 H       1  UNL         0.0455
     61 H          -3.9952    2.1305   55.5627 H       1  UNL         0.0586
     62 H          -2.8575    3.4069   56.0883 H       1  UNL         0.0586
     63 H          -1.4781    4.0756   53.7945 H       1  UNL         0.0651
     64 H          -0.5479    3.4060   51.6124 H       1  UNL         0.0638
     65 H          -4.4898    2.2739   50.2591 H       1  UNL         0.0653
     66 H         -12.0806    0.4641   56.8516 H       1  UNL         0.0433
     67 H         -10.4081    0.1064   56.3418 H       1  UNL         0.0433
     68 H         -11.2244    1.6158   55.8271 H       1  UNL         0.0433
     69 H          -9.5034   -3.1165   57.8418 H       1  UNL         0.0535
     70 H         -11.1223   -3.2510   57.1132 H       1  UNL         0.0535
     71 H         -10.8674   -3.6982   58.8265 H       1  UNL         0.0535
@<TRIPOS>BOND
     1     1     2   ar
     2     1     6   ar
     3     1    39    1
     4     2     3   ar
     5     2    40    1
     6     3     4   ar
     7     3    37    1
     8     4     5   ar
     9     4     7    1
    10     5     6   ar
    11     5    41    1
    12     6    42    1
    13     7     8    1
    14     7    15    1
    15     7    43    1
    16     8     9   ar
    17     8    13   ar
    18     9    10   ar
    19     9    14    1
    20    10    11   ar
    21    10    44    1
    22    11    12   ar
    23    11    45    1
    24    12    13   ar
    25    12    46    1
    26    14    47    1
    27    14    48    1
    28    14    49    1
    29    15    16   am
    30    15    36    1
    31    16    17    2
    32    16    18    1
    33    18    19    1
    34    18    23    1
    35    18    50    1
    36    19    20    1
    37    19    51    1
    38    19    52    1
    39    20    21    1
    40    20    53    1
    41    20    54    1
    42    21    22    1
    43    21    24    1
    44    22    23    1
    45    22    55    1
    46    22    56    1
    47    23    57    1
    48    23    58    1
    49    24    25    1
    50    24    59    1
    51    24    60    1
    52    25    26    1
    53    25    61    1
    54    25    62    1
    55    26    27    1
    56    27    28   ar
    57    27    32   ar
    58    28    29   ar
    59    28    63    1
    60    29    30   ar
    61    29    64    1
    62    30    31   ar
    63    30    34    1
    64    31    32   ar
    65    31    65    1
    66    32    33    1
    67    34    35    3
    68    36    66    1
    69    36    67    1
    70    36    68    1
    71    37    38    1
    72    38    69    1
    73    38    70    1
    74    38    71    1
@<TRIPOS>SUBSTRUCTURE
     1 UNL         1 TEMP              0 ****  ****    0 ROOT


##########                                Name:    ZINC000770814339
##########                DOCK_Rotatable_Bonds:                  13
##########                         Heavy_Atoms:                  28
##########                    Molecular_Weight:             409.423
##########                DOCK_Rotatable_Bonds:                  13
##########                       Formal_Charge:          -0.0100008
##########                     HBond_Acceptors:                  12
##########                        HBond_Donors:                   4
##########                         Heavy_Atoms:                  28
##########                          Grid_Score:          -34.638042
##########                     Grid_vdw_energy:          -33.217606
##########                      Grid_es_energy:           -1.420437
##########           Internal_energy_repulsive:            9.235506

@<TRIPOS>MOLECULE
ZINC000770814339
 47 48 1 0 0
SMALL
USER_CHARGES


@<TRIPOS>ATOM
      1 C1          1.3695    0.9644   48.0139 C.3     1  ZINC000770814339   -0.1500
      2 C2          1.2215    2.4699   48.2432 C.3     1  ZINC000770814339    0.0600
      3 O3         -0.0675    2.9115   47.7415 O.3     1  ZINC000770814339   -0.3500
      4 C4         -1.1326    2.7036   48.5313 C.2     1  ZINC000770814339    0.4700
      5 O5         -2.1869    2.3657   48.0473 O.2     1  ZINC000770814339   -0.4800
      6 C6         -1.0136    2.8917   50.0218 C.3     1  ZINC000770814339    0.0700
      7 O7         -2.3050    2.7714   50.6217 O.3     1  ZINC000770814339   -0.1800
      8 N8         -2.2790    2.7033   52.0358 N.2     1  ZINC000770814339   -0.2800
      9 C9         -3.3766    2.8759   52.7167 C.2     1  ZINC000770814339    0.1800
     10 C10        -4.6524    3.1418   52.0108 C.2     1  ZINC000770814339    0.5900
     11 O11        -5.0876    4.2745   51.9484 O.2     1  ZINC000770814339   -0.5100
     12 N12        -5.3299    2.1271   51.4384 N.am    1  ZINC000770814339   -0.7000
     13 C13        -6.5902    2.3901   50.7392 C.3     1  ZINC000770814339    0.1500
     14 C14        -7.7412    1.8883   51.5726 C.ar    1  ZINC000770814339   -0.0600
     15 C15        -7.6987    0.6182   52.1166 C.ar    1  ZINC000770814339   -0.1200
     16 C16        -8.7546    0.1581   52.8810 C.ar    1  ZINC000770814339   -0.0200
     17 C17        -9.8527    0.9682   53.1018 C.ar    1  ZINC000770814339   -0.6700
     18 S18       -11.1987    0.3814   54.0758 S.o2    1  ZINC000770814339    2.7000
     19 N19       -10.5707   -0.1392   55.5169 N.am    1  ZINC000770814339   -1.2500
     20 O20       -12.0021    1.5148   54.3742 O.2     1  ZINC000770814339   -0.9600
     21 O21       -11.6984   -0.7733   53.4153 O.2     1  ZINC000770814339   -0.9600
     22 C22        -9.8946    2.2388   52.5590 C.ar    1  ZINC000770814339   -0.0200
     23 C23        -8.8370    2.7003   51.7977 C.ar    1  ZINC000770814339   -0.1200
     24 C24        -3.3493    2.8069   54.1913 C.2     1  ZINC000770814339    0.0600
     25 C25        -4.4300    2.9350   55.0371 C.2     1  ZINC000770814339   -0.2000
     26 C26        -3.9624    2.8053   56.3440 C.2     1  ZINC000770814339    0.0400
     27 N27        -2.6686    2.6086   56.3092 N.2     1  ZINC000770814339   -0.2600
     28 N28        -2.2504    2.5986   54.9728 N.pl3   1  ZINC000770814339   -0.4400
     29 H29         2.3371    0.6329   48.3906 H       1  ZINC000770814339    0.0800
     30 H30         0.5743    0.4368   48.5406 H       1  ZINC000770814339    0.0700
     31 H31         1.3024    0.7511   46.9471 H       1  ZINC000770814339    0.0700
     32 H32         1.2885    2.6832   49.3101 H       1  ZINC000770814339    0.0700
     33 H33         2.0166    2.9975   47.7165 H       1  ZINC000770814339    0.0700
     34 H34        -0.3500    2.1306   50.4322 H       1  ZINC000770814339    0.1100
     35 H35        -0.6062    3.8806   50.2318 H       1  ZINC000770814339    0.1100
     36 H36        -4.9831    1.2226   51.4893 H       1  ZINC000770814339    0.4100
     37 H37        -6.6990    3.4625   50.5775 H       1  ZINC000770814339    0.0900
     38 H38        -6.5865    1.8762   49.7779 H       1  ZINC000770814339    0.0900
     39 H39        -6.8408   -0.0147   51.9440 H       1  ZINC000770814339    0.1400
     40 H40        -8.7216   -0.8345   53.3054 H       1  ZINC000770814339    0.1500
     41 H41       -10.0899    0.4798   56.0883 H       1  ZINC000770814339    0.4200
     42 H42       -10.6837   -1.0632   55.7896 H       1  ZINC000770814339    0.4200
     43 H43       -10.7523    2.8719   52.7319 H       1  ZINC000770814339    0.1500
     44 H44        -8.8697    3.6931   51.3737 H       1  ZINC000770814339    0.1400
     45 H45        -5.4545    3.1055   54.7409 H       1  ZINC000770814339    0.1700
     46 H46        -4.5672    2.8586   57.2371 H       1  ZINC000770814339    0.1900
     47 H47        -1.3413    2.4720   54.6590 H       1  ZINC000770814339    0.4500
@<TRIPOS>BOND
     1     1     2    1
     2     1    29    1
     3     1    30    1
     4     1    31    1
     5     2     3    1
     6     2    32    1
     7     2    33    1
     8     3     4    1
     9     4     5    2
    10     4     6    1
    11     6     7    1
    12     6    34    1
    13     6    35    1
    14     7     8    1
    15     8     9    2
    16     9    10    1
    17     9    24    1
    18    10    11    2
    19    10    12   am
    20    12    13    1
    21    12    36    1
    22    13    14    1
    23    13    37    1
    24    13    38    1
    25    14    23   ar
    26    14    15   ar
    27    15    16   ar
    28    15    39    1
    29    16    17   ar
    30    16    40    1
    31    17    18    1
    32    17    22   ar
    33    18    19   am
    34    18    20    2
    35    18    21    2
    36    19    41    1
    37    19    42    1
    38    22    23   ar
    39    22    43    1
    40    23    44    1
    41    24    28    1
    42    24    25    2
    43    25    26    1
    44    25    45    1
    45    26    27    2
    46    26    46    1
    47    27    28    1
    48    28    47    1
@<TRIPOS>SUBSTRUCTURE
     1 ZINC000770814339        1 TEMP              0 ****  ****    0 ROOT


##########                                Name:    ZINC000013809319
##########                DOCK_Rotatable_Bonds:                  10
##########                         Heavy_Atoms:                  30
##########                    Molecular_Weight:             407.469
##########                DOCK_Rotatable_Bonds:                  10
##########                       Formal_Charge:         -0.00999978
##########                     HBond_Acceptors:                   7
##########                        HBond_Donors:                   1
##########                         Heavy_Atoms:                  30
##########                          Grid_Score:          -34.218983
##########                     Grid_vdw_energy:          -33.945015
##########                      Grid_es_energy:           -0.273969
##########           Internal_energy_repulsive:           17.584743

@<TRIPOS>MOLECULE
ZINC000013809319
 55 57 1 0 0
SMALL
USER_CHARGES


@<TRIPOS>ATOM
      1 C1        -14.4375   -0.4463   56.0245 C.3     1  ZINC000013809319   -0.1500
      2 C2        -13.8617   -1.8561   56.1727 C.3     1  ZINC000013809319    0.0500
      3 O3        -12.5039   -1.7724   56.6101 O.3     1  ZINC000013809319   -0.3100
      4 C4        -11.6163   -1.1972   55.7586 C.ar    1  ZINC000013809319    0.1500
      5 C5        -11.4443   -1.7170   54.4817 C.ar    1  ZINC000013809319   -0.2200
      6 C6        -10.5448   -1.1356   53.6148 C.ar    1  ZINC000013809319   -0.0300
      7 C7         -9.8060   -0.0231   54.0209 C.ar    1  ZINC000013809319   -0.1100
      8 C8         -8.8393    0.6044   53.0924 C.2     1  ZINC000013809319    0.2300
      9 C9         -8.9977    1.9261   52.7082 C.2     1  ZINC000013809319   -0.2900
     10 C10        -8.0563    2.4827   51.8251 C.2     1  ZINC000013809319    0.5300
     11 O11        -8.1558    3.6429   51.4601 O.2     1  ZINC000013809319   -0.5400
     12 N12        -7.0400    1.7093   51.3892 N.am    1  ZINC000013809319   -0.5100
     13 C13        -6.0446    2.2642   50.4687 C.3     1  ZINC000013809319    0.0700
     14 C14        -4.8219    2.6828   51.2440 C.2     1  ZINC000013809319    0.5000
     15 O15        -4.9348    3.0917   52.3802 O.2     1  ZINC000013809319   -0.5200
     16 N16        -3.6029    2.6027   50.6746 N.am    1  ZINC000013809319   -0.7200
     17 C17        -2.4141    3.0080   51.4288 C.3     1  ZINC000013809319    0.1300
     18 C18        -1.4418    3.7338   50.4967 C.3     1  ZINC000013809319   -0.0800
     19 C19        -0.9664    2.7834   49.4282 C.ar    1  ZINC000013809319   -0.1200
     20 C20        -1.7549    2.5376   48.3211 C.ar    1  ZINC000013809319   -0.0800
     21 C21        -1.3194    1.6652   47.3405 C.ar    1  ZINC000013809319   -0.1500
     22 C22        -0.0941    1.0374   47.4652 C.ar    1  ZINC000013809319   -0.0800
     23 C23         0.6986    1.2801   48.5705 C.ar    1  ZINC000013809319   -0.2100
     24 C24         0.2664    2.1588   49.5529 C.ar    1  ZINC000013809319    0.1300
     25 O25         1.0442    2.3993   50.6410 O.3     1  ZINC000013809319   -0.3100
     26 C26         2.2705    1.6717   50.7354 C.3     1  ZINC000013809319    0.0300
     27 C27        -6.9361    0.4284   51.7970 C.2     1  ZINC000013809319    0.3900
     28 N28        -7.7977   -0.1022   52.6198 N.2     1  ZINC000013809319   -0.5300
     29 C29        -9.9814    0.4964   55.3045 C.ar    1  ZINC000013809319   -0.0500
     30 C30       -10.8865   -0.0868   56.1642 C.ar    1  ZINC000013809319   -0.1600
     31 H31       -14.3965    0.0659   56.9858 H       1  ZINC000013809319    0.0700
     32 H32       -13.8532    0.1096   55.2913 H       1  ZINC000013809319    0.0700
     33 H33       -15.4732   -0.5101   55.6908 H       1  ZINC000013809319    0.0800
     34 H34       -14.4461   -2.4120   56.9059 H       1  ZINC000013809319    0.0600
     35 H35       -13.9029   -2.3683   55.2114 H       1  ZINC000013809319    0.0600
     36 H36       -12.0161   -2.5780   54.1683 H       1  ZINC000013809319    0.1300
     37 H37       -10.4113   -1.5403   52.6224 H       1  ZINC000013809319    0.1400
     38 H38        -9.8247    2.5143   53.0779 H       1  ZINC000013809319    0.1600
     39 H39        -5.7677    1.5082   49.7340 H       1  ZINC000013809319    0.1300
     40 H40        -6.4651    3.1305   49.9580 H       1  ZINC000013809319    0.1300
     41 H41        -3.5127    2.2768   49.7654 H       1  ZINC000013809319    0.4000
     42 H42        -2.7078    3.6756   52.2387 H       1  ZINC000013809319    0.0700
     43 H43        -1.9286    2.1247   51.8438 H       1  ZINC000013809319    0.0700
     44 H44        -1.9474    4.5800   50.0316 H       1  ZINC000013809319    0.0800
     45 H45        -0.5872    4.0920   51.0707 H       1  ZINC000013809319    0.0800
     46 H46        -2.7125    3.0269   48.2214 H       1  ZINC000013809319    0.1300
     47 H47        -1.9378    1.4738   46.4759 H       1  ZINC000013809319    0.1300
     48 H48         0.2437    0.3561   46.6982 H       1  ZINC000013809319    0.1300
     49 H49         1.6556    0.7891   48.6675 H       1  ZINC000013809319    0.1300
     50 H50         2.8958    1.8999   49.8723 H       1  ZINC000013809319    0.0600
     51 H51         2.7930    1.9575   51.6483 H       1  ZINC000013809319    0.1000
     52 H52         2.0579    0.6029   50.7579 H       1  ZINC000013809319    0.0600
     53 H53        -6.1151   -0.1732   51.4357 H       1  ZINC000013809319    0.2000
     54 H54        -9.4114    1.3571   55.6218 H       1  ZINC000013809319    0.1400
     55 H55       -11.0229    0.3148   57.1574 H       1  ZINC000013809319    0.1400
@<TRIPOS>BOND
     1     1     2    1
     2     1    31    1
     3     1    32    1
     4     1    33    1
     5     2     3    1
     6     2    34    1
     7     2    35    1
     8     3     4    1
     9     4    30   ar
    10     4     5   ar
    11     5     6   ar
    12     5    36    1
    13     6     7   ar
    14     6    37    1
    15     7     8    1
    16     7    29   ar
    17     8    28    1
    18     8     9    2
    19     9    10    1
    20     9    38    1
    21    10    11    2
    22    10    12   am
    23    12    13    1
    24    12    27    1
    25    13    14    1
    26    13    39    1
    27    13    40    1
    28    14    15    2
    29    14    16   am
    30    16    17    1
    31    16    41    1
    32    17    18    1
    33    17    42    1
    34    17    43    1
    35    18    19    1
    36    18    44    1
    37    18    45    1
    38    19    24   ar
    39    19    20   ar
    40    20    21   ar
    41    20    46    1
    42    21    22   ar
    43    21    47    1
    44    22    23   ar
    45    22    48    1
    46    23    24   ar
    47    23    49    1
    48    24    25    1
    49    25    26    1
    50    26    50    1
    51    26    51    1
    52    26    52    1
    53    27    28    2
    54    27    53    1
    55    29    30   ar
    56    29    54    1
    57    30    55    1
@<TRIPOS>SUBSTRUCTURE
     1 ZINC000013809319        1 TEMP              0 ****  ****    0 ROOT


##########                                Name:    ZINC000599797189
##########                DOCK_Rotatable_Bonds:                  13
##########                         Heavy_Atoms:                  23
##########                    Molecular_Weight:             329.313
##########                DOCK_Rotatable_Bonds:                  13
##########                       Formal_Charge:          0.00999949
##########                     HBond_Acceptors:                  11
##########                        HBond_Donors:                   3
##########                         Heavy_Atoms:                  23
##########                          Grid_Score:          -33.967583
##########                     Grid_vdw_energy:          -32.999775
##########                      Grid_es_energy:           -0.967808
##########           Internal_energy_repulsive:           15.482079

@<TRIPOS>MOLECULE
ZINC000599797189
 42 42 1 0 0
SMALL
USER_CHARGES


@<TRIPOS>ATOM
      1 C1         -9.6627    0.9570   53.4924 C.3     1  ZINC000599797189   -0.1500
      2 C2         -9.0706    0.0194   52.4382 C.3     1  ZINC000599797189    0.0600
      3 O3         -7.6273   -0.0293   52.5896 O.3     1  ZINC000599797189   -0.3600
      4 C4         -6.8908    0.2488   51.5026 C.2     1  ZINC000599797189    0.4500
      5 O5         -6.3834   -0.6476   50.8711 O.2     1  ZINC000599797189   -0.4800
      6 C6         -6.6965    1.6792   51.0698 C.3     1  ZINC000599797189    0.1500
      7 N7         -5.3858    2.1525   51.5219 N.pl3   1  ZINC000599797189   -0.3800
      8 C8         -5.1392    2.9612   52.5663 C.2     1  ZINC000599797189    0.2800
      9 N9         -3.8462    3.1489   52.6415 N.2     1  ZINC000599797189   -0.5100
     10 C10        -3.2340    2.4764   51.6623 C.2     1  ZINC000599797189    0.4700
     11 N11        -1.8542    2.4459   51.4347 N.am    1  ZINC000599797189   -0.6400
     12 C12        -1.3620    2.7952   50.2296 C.2     1  ZINC000599797189    0.7100
     13 O13        -2.1175    3.1353   49.3398 O.2     1  ZINC000599797189   -0.5300
     14 N14        -0.0324    2.7673   50.0109 N.am    1  ZINC000599797189   -0.7300
     15 C15         0.5027    3.1486   48.7015 C.3     1  ZINC000599797189    0.1100
     16 C16         0.7451    1.8916   47.8638 C.3     1  ZINC000599797189    0.1100
     17 H17        -0.1481    1.2671   47.8787 H       1  ZINC000599797189    0.1200
     18 O18         1.0418    2.2665   46.5171 O.3     1  ZINC000599797189   -0.5400
     19 C19         1.9239    1.1095   48.4469 C.3     1  ZINC000599797189   -0.1500
     20 C20         1.9440   -0.2791   47.8620 C.2     1  ZINC000599797189    0.4600
     21 O21         1.5732   -0.4619   46.7266 O.2     1  ZINC000599797189   -0.4900
     22 O22         2.3737   -1.3130   48.6024 O.3     1  ZINC000599797189   -0.3600
     23 C23         2.8052   -1.0191   49.9574 C.3     1  ZINC000599797189    0.0400
     24 N24        -4.1391    1.8456   50.9530 N.2     1  ZINC000599797189   -0.3200
     25 H25       -10.7461    0.9936   53.3786 H       1  ZINC000599797189    0.0800
     26 H26        -9.4140    0.5882   54.4874 H       1  ZINC000599797189    0.0700
     27 H27        -9.2497    1.9573   53.3620 H       1  ZINC000599797189    0.0700
     28 H28        -9.4836   -0.9809   52.5686 H       1  ZINC000599797189    0.0700
     29 H29        -9.3193    0.3884   51.4431 H       1  ZINC000599797189    0.0700
     30 H30        -6.7497    1.7403   49.9829 H       1  ZINC000599797189    0.1500
     31 H31        -7.4778    2.3005   51.5074 H       1  ZINC000599797189    0.1300
     32 H32        -5.8799    3.3835   53.2290 H       1  ZINC000599797189    0.2300
     33 H33        -1.2515    2.1734   52.1443 H       1  ZINC000599797189    0.4200
     34 H34         0.5703    2.4948   50.7205 H       1  ZINC000599797189    0.4000
     35 H35        -0.2123    3.7935   48.1906 H       1  ZINC000599797189    0.0800
     36 H36         1.4432    3.6833   48.8351 H       1  ZINC000599797189    0.0800
     37 H37         1.7221    2.9495   46.4397 H       1  ZINC000599797189    0.3800
     38 H38         2.8553    1.6203   48.2024 H       1  ZINC000599797189    0.1200
     39 H39         1.8177    1.0462   49.5299 H       1  ZINC000599797189    0.1200
     40 H40         3.6357   -0.3137   49.9294 H       1  ZINC000599797189    0.0600
     41 H41         1.9769   -0.5832   50.5160 H       1  ZINC000599797189    0.0600
     42 H42         3.1268   -1.9400   50.4440 H       1  ZINC000599797189    0.1000
@<TRIPOS>BOND
     1     1     2    1
     2     1    25    1
     3     1    26    1
     4     1    27    1
     5     2     3    1
     6     2    28    1
     7     2    29    1
     8     3     4    1
     9     4     5    2
    10     4     6    1
    11     6     7    1
    12     6    30    1
    13     6    31    1
    14     7    24    1
    15     7     8    1
    16     8     9    2
    17     8    32    1
    18     9    10    1
    19    10    11    1
    20    10    24    2
    21    11    12   am
    22    11    33    1
    23    12    13    2
    24    12    14   am
    25    14    15    1
    26    14    34    1
    27    15    16    1
    28    15    35    1
    29    15    36    1
    30    16    17    1
    31    16    18    1
    32    16    19    1
    33    18    37    1
    34    19    20    1
    35    19    38    1
    36    19    39    1
    37    20    21    2
    38    20    22    1
    39    22    23    1
    40    23    40    1
    41    23    41    1
    42    23    42    1
@<TRIPOS>SUBSTRUCTURE
     1 ZINC000599797189        1 TEMP              0 ****  ****    0 ROOT


##########                                Name:     oleObject70.pdb
##########                DOCK_Rotatable_Bonds:                   9
##########                         Heavy_Atoms:                  35
##########                    Molecular_Weight:             504.458
##########                DOCK_Rotatable_Bonds:                   9
##########                       Formal_Charge:          0.00010002
##########                     HBond_Acceptors:                   6
##########                        HBond_Donors:                   2
##########                         Heavy_Atoms:                  35
##########                          Grid_Score:          -33.961258
##########                     Grid_vdw_energy:          -34.550186
##########                      Grid_es_energy:            0.588930
##########           Internal_energy_repulsive:           25.792488

@<TRIPOS>MOLECULE
oleObject70.pdb
 62 65 1 0 0
SMALL
NO_CHARGES


@<TRIPOS>ATOM
      1 C          -1.8701    4.3298   56.0524 C.ar    1  UNL        -0.0620
      2 C          -2.6117    5.1712   55.2110 C.ar    1  UNL        -0.0590
      3 C          -3.9732    4.9162   54.9559 C.ar    1  UNL        -0.0456
      4 C          -4.6057    3.8019   55.5642 C.ar    1  UNL        -0.0187
      5 C          -3.8409    2.9558   56.3968 C.ar    1  UNL        -0.0565
      6 C          -2.4850    3.2180   56.6420 C.ar    1  UNL        -0.0619
      7 C          -6.0915    3.4916   55.3092 C.3     1  UNL         0.0909
      8 C          -6.3719    2.8662   53.9318 C.ar    1  UNL         0.0681
      9 C          -7.5854    2.1876   53.6525 C.ar    1  UNL        -0.0272
     10 C          -7.7652    1.6382   52.3689 C.ar    1  UNL        -0.0559
     11 C          -6.7483    1.7826   51.4143 C.ar    1  UNL        -0.0435
     12 C          -5.5831    2.4755   51.7738 C.ar    1  UNL         0.0272
     13 N          -5.4019    3.0046   52.9979 N.ar    1  UNL        -0.2587
     14 C          -8.6900    2.0304   54.6916 C.3     1  UNL        -0.0379
     15 N          -6.7365    2.7991   56.4466 N.am    1  UNL        -0.2987
     16 C          -7.4340    3.3923   57.4916 C.2     1  UNL         0.2437
     17 O          -7.5985    4.5975   57.5724 O.2     1  UNL        -0.2719
     18 C          -7.9989    2.4560   58.5331 C.ar    1  UNL         0.0371
     19 C          -8.7605    2.9217   59.6285 C.ar    1  UNL        -0.0494
     20 C          -9.2724    2.0223   60.5783 C.ar    1  UNL        -0.0570
     21 C          -9.0344    0.6435   60.4542 C.ar    1  UNL        -0.0341
     22 C          -8.2803    0.1717   59.3671 C.ar    1  UNL        -0.0570
     23 C          -7.7670    1.0696   58.4172 C.ar    1  UNL        -0.0494
     24 C          -9.5958   -0.3271   61.4796 C.3     1  UNL         0.0208
     25 N         -10.9494   -0.7650   61.1162 N.4     1  UNL        -0.3086
     26 C         -10.9823   -2.0243   60.3608 C.3     1  UNL         0.0223
     27 C         -12.3893   -2.3484   59.8769 C.ar    1  UNL        -0.0154
     28 C         -13.4374   -2.4367   60.8131 C.ar    1  UNL        -0.0548
     29 C         -14.7453   -2.7296   60.3936 C.ar    1  UNL        -0.0431
     30 C         -15.0144   -2.9349   59.0316 C.ar    1  UNL         0.0421
     31 C         -13.9778   -2.8460   58.0895 C.ar    1  UNL        -0.0245
     32 C         -12.6686   -2.5531   58.5079 C.ar    1  UNL         0.0465
     33 CL        -11.4089   -2.4438   57.2917 Cl      1  UNL        -0.0839
     34 CL        -16.6446   -3.2991   58.5072 Cl      1  UNL        -0.0843
     35 C          -4.7220    5.8499   54.0099 C.3     1  UNL        -0.0394
     36 H          -0.8195    4.5335   56.2384 H       1  UNL         0.0623
     37 H          -2.1211    6.0237   54.7497 H       1  UNL         0.0626
     38 H          -4.2909    2.0802   56.8526 H       1  UNL         0.0627
     39 H          -1.9116    2.5560   57.2846 H       1  UNL         0.0623
     40 H          -6.5959    4.4623   55.2904 H       1  UNL         0.0624
     41 H          -8.6773    1.1058   52.1145 H       1  UNL         0.0627
     42 H          -6.8596    1.3668   50.4173 H       1  UNL         0.0639
     43 H          -4.7691    2.6102   51.0628 H       1  UNL         0.0840
     44 H          -8.3556    1.4121   55.5334 H       1  UNL         0.0280
     45 H          -9.5781    1.5473   54.2654 H       1  UNL         0.0280
     46 H          -9.0078    3.0032   55.0859 H       1  UNL         0.0280
     47 H          -6.6558    1.7921   56.4693 H       1  UNL         0.1508
     48 H          -8.9654    3.9794   59.7588 H       1  UNL         0.0631
     49 H          -9.8594    2.3978   61.4120 H       1  UNL         0.0626
     50 H          -8.0929   -0.8927   59.2553 H       1  UNL         0.0626
     51 H          -7.1873    0.6801   57.5849 H       1  UNL         0.0631
     52 H          -9.6142    0.1596   62.4634 H       1  UNL         0.0479
     53 H          -8.9314   -1.1980   61.5529 H       1  UNL         0.0479
     54 H         -11.3990   -0.0341   60.5649 H       1  UNL         0.1229
     55 H         -10.6209   -2.8424   60.9972 H       1  UNL         0.0480
     56 H         -10.3063   -1.9618   59.4983 H       1  UNL         0.0480
     57 H         -13.2385   -2.2745   61.8689 H       1  UNL         0.0627
     58 H         -15.5475   -2.7952   61.1232 H       1  UNL         0.0639
     59 H         -14.1888   -3.0021   57.0354 H       1  UNL         0.0654
     60 H          -4.0441    6.5603   53.5202 H       1  UNL         0.0280
     61 H          -5.4763    6.4356   54.5497 H       1  UNL         0.0280
     62 H          -5.2289    5.2876   53.2157 H       1  UNL         0.0280
@<TRIPOS>BOND
     1     1     2   ar
     2     1     6   ar
     3     1    36    1
     4     2     3   ar
     5     2    37    1
     6     3     4   ar
     7     3    35    1
     8     4     5   ar
     9     4     7    1
    10     5     6   ar
    11     5    38    1
    12     6    39    1
    13     7     8    1
    14     7    15    1
    15     7    40    1
    16     8     9   ar
    17     8    13   ar
    18     9    10   ar
    19     9    14    1
    20    10    11   ar
    21    10    41    1
    22    11    12   ar
    23    11    42    1
    24    12    13   ar
    25    12    43    1
    26    14    44    1
    27    14    45    1
    28    14    46    1
    29    15    16   am
    30    15    47    1
    31    16    17    2
    32    16    18    1
    33    18    19   ar
    34    18    23   ar
    35    19    20   ar
    36    19    48    1
    37    20    21   ar
    38    20    49    1
    39    21    22   ar
    40    21    24    1
    41    22    23   ar
    42    22    50    1
    43    23    51    1
    44    24    25    1
    45    24    52    1
    46    24    53    1
    47    25    26    1
    48    25    54    1
    49    26    27    1
    50    26    55    1
    51    26    56    1
    52    27    28   ar
    53    27    32   ar
    54    28    29   ar
    55    28    57    1
    56    29    30   ar
    57    29    58    1
    58    30    31   ar
    59    30    34    1
    60    31    32   ar
    61    31    59    1
    62    32    33    1
    63    35    60    1
    64    35    61    1
    65    35    62    1
@<TRIPOS>SUBSTRUCTURE
     1 UNL         1 TEMP              0 ****  ****    0 ROOT


##########                                Name:    ZINC000465642058
##########                DOCK_Rotatable_Bonds:                  10
##########                         Heavy_Atoms:                  31
##########                    Molecular_Weight:             420.511
##########                DOCK_Rotatable_Bonds:                  10
##########                       Formal_Charge:          1.2666e-07
##########                     HBond_Acceptors:                   7
##########                        HBond_Donors:                   2
##########                         Heavy_Atoms:                  31
##########                          Grid_Score:          -33.940979
##########                     Grid_vdw_energy:          -33.056480
##########                      Grid_es_energy:           -0.884498
##########           Internal_energy_repulsive:           15.985597

@<TRIPOS>MOLECULE
ZINC000465642058
 59 62 1 0 0
SMALL
USER_CHARGES


@<TRIPOS>ATOM
      1 C1         -6.7119    1.8600   50.9777 C.3     1  ZINC000465642058   -0.1500
      2 C2         -5.8196    2.5273   52.0262 C.3     1  ZINC000465642058    0.0500
      3 O3         -4.4744    2.0725   51.8660 O.3     1  ZINC000465642058   -0.3000
      4 C4         -3.5286    2.6536   52.6515 C.ar    1  ZINC000465642058    0.1200
      5 C5         -3.7724    2.8565   54.0025 C.ar    1  ZINC000465642058   -0.1600
      6 C6         -2.8104    3.4443   54.7938 C.ar    1  ZINC000465642058   -0.1300
      7 C7         -1.5896    3.8340   54.2592 C.ar    1  ZINC000465642058    0.0700
      8 C8         -1.3524    3.6321   52.9018 C.ar    1  ZINC000465642058   -0.0700
      9 C9         -2.3128    3.0413   52.1078 C.ar    1  ZINC000465642058   -0.1100
     10 C10        -2.0449    2.8272   50.6403 C.3     1  ZINC000465642058    0.1900
     11 N11        -0.6474    2.4302   50.4517 N.am    1  ZINC000465642058   -0.7300
     12 C12        -0.2434    1.9275   49.2683 C.2     1  ZINC000465642058    0.7100
     13 O13        -1.0392    1.8021   48.3576 O.2     1  ZINC000465642058   -0.5900
     14 N14         1.0426    1.5638   49.0944 N.am    1  ZINC000465642058   -0.6200
     15 C15         1.4812    1.0156   47.8085 C.3     1  ZINC000465642058    0.1900
     16 C16         1.9699    2.1350   46.9258 C.2     1  ZINC000465642058    0.0500
     17 N17         3.1999    2.5754   46.8554 N.2     1  ZINC000465642058   -0.2700
     18 N18         3.2386    3.6184   45.9210 N.pl3   1  ZINC000465642058   -0.4700
     19 C19         1.9911    3.7870   45.4349 C.2     1  ZINC000465642058    0.0600
     20 C20         1.1880    2.8784   46.0356 C.2     1  ZINC000465642058   -0.2600
     21 C21         2.0019    1.7164   50.1911 C.3     1  ZINC000465642058    0.1700
     22 C22         2.8661    0.4849   50.2776 C.ar    1  ZINC000465642058   -0.1100
     23 C23         2.2908   -0.7698   50.2038 C.ar    1  ZINC000465642058   -0.0900
     24 C24         3.0836   -1.8994   50.2831 C.ar    1  ZINC000465642058   -0.1200
     25 C25         4.4518   -1.7743   50.4359 C.ar    1  ZINC000465642058   -0.1200
     26 C26         5.0272   -0.5196   50.5088 C.ar    1  ZINC000465642058   -0.1300
     27 C27         4.2349    0.6100   50.4251 C.ar    1  ZINC000465642058   -0.1100
     28 O28        -0.7812    4.3700   55.2160 O.3     1  ZINC000465642058   -0.3000
     29 C29        -1.5813    4.7706   56.3413 C.3     1  ZINC000465642058    0.0800
     30 H30        -1.9101    5.8041   56.2330 H       1  ZINC000465642058    0.0900
     31 C31        -0.8094    4.5837   57.6491 C.3     1  ZINC000465642058   -0.1500
     32 C32        -2.7850    3.8017   56.2675 C.3     1  ZINC000465642058   -0.1100
     33 H33        -6.6764    0.7781   51.1059 H       1  ZINC000465642058    0.0700
     34 H34        -7.7379    2.2069   51.0999 H       1  ZINC000465642058    0.0800
     35 H35        -6.3569    2.1195   49.9803 H       1  ZINC000465642058    0.0700
     36 H36        -5.8550    3.6092   51.8980 H       1  ZINC000465642058    0.0600
     37 H37        -6.1745    2.2678   53.0236 H       1  ZINC000465642058    0.0600
     38 H38        -4.7157    2.5542   54.4330 H       1  ZINC000465642058    0.1300
     39 H39        -0.4103    3.9358   52.4698 H       1  ZINC000465642058    0.1400
     40 H40        -2.6998    2.0423   50.2621 H       1  ZINC000465642058    0.0700
     41 H41        -2.2361    3.7528   50.0974 H       1  ZINC000465642058    0.0800
     42 H42        -0.0128    2.5291   51.1787 H       1  ZINC000465642058    0.4000
     43 H43         2.2900    0.3039   47.9739 H       1  ZINC000465642058    0.1000
     44 H44         0.6454    0.5100   47.3250 H       1  ZINC000465642058    0.0900
     45 H45         4.0235    4.1291   45.6681 H       1  ZINC000465642058    0.4400
     46 H46         1.6886    4.5140   44.6956 H       1  ZINC000465642058    0.1800
     47 H47         0.1292    2.7537   45.8629 H       1  ZINC000465642058    0.1500
     48 H48         2.6292    2.5884   50.0064 H       1  ZINC000465642058    0.0900
     49 H49         1.4630    1.8487   51.1293 H       1  ZINC000465642058    0.0900
     50 H50         1.2219   -0.8676   50.0845 H       1  ZINC000465642058    0.1300
     51 H51         2.6340   -2.8798   50.2262 H       1  ZINC000465642058    0.1200
     52 H52         5.0711   -2.6569   50.4985 H       1  ZINC000465642058    0.1200
     53 H53         6.0961   -0.4218   50.6283 H       1  ZINC000465642058    0.1200
     54 H54         4.6844    1.5903   50.4820 H       1  ZINC000465642058    0.1200
     55 H55         0.0821    5.2107   57.6375 H       1  ZINC000465642058    0.0700
     56 H56        -1.4432    4.8687   58.4889 H       1  ZINC000465642058    0.0800
     57 H57        -0.5174    3.5386   57.7525 H       1  ZINC000465642058    0.0700
     58 H58        -3.7069    4.3027   56.5626 H       1  ZINC000465642058    0.0900
     59 H59        -2.6111    2.9170   56.8799 H       1  ZINC000465642058    0.1000
@<TRIPOS>BOND
     1     1     2    1
     2     1    33    1
     3     1    34    1
     4     1    35    1
     5     2     3    1
     6     2    36    1
     7     2    37    1
     8     3     4    1
     9     4     9   ar
    10     4     5   ar
    11     5     6   ar
    12     5    38    1
    13     6    32    1
    14     6     7   ar
    15     7     8   ar
    16     7    28    1
    17     8     9   ar
    18     8    39    1
    19     9    10    1
    20    10    11    1
    21    10    40    1
    22    10    41    1
    23    11    12   am
    24    11    42    1
    25    12    13    2
    26    12    14   am
    27    14    15    1
    28    14    21    1
    29    15    16    1
    30    15    43    1
    31    15    44    1
    32    16    20    1
    33    16    17    2
    34    17    18    1
    35    18    19    1
    36    18    45    1
    37    19    20    2
    38    19    46    1
    39    20    47    1
    40    21    22    1
    41    21    48    1
    42    21    49    1
    43    22    27   ar
    44    22    23   ar
    45    23    24   ar
    46    23    50    1
    47    24    25   ar
    48    24    51    1
    49    25    26   ar
    50    25    52    1
    51    26    27   ar
    52    26    53    1
    53    27    54    1
    54    28    29    1
    55    29    30    1
    56    29    31    1
    57    29    32    1
    58    31    55    1
    59    31    56    1
    60    31    57    1
    61    32    58    1
    62    32    59    1
@<TRIPOS>SUBSTRUCTURE
     1 ZINC000465642058        1 TEMP              0 ****  ****    0 ROOT


##########                                Name:    ZINC001573443776
##########                DOCK_Rotatable_Bonds:                   8
##########                         Heavy_Atoms:                  28
##########                    Molecular_Weight:             386.457
##########                DOCK_Rotatable_Bonds:                   8
##########                       Formal_Charge:          0.00999954
##########                     HBond_Acceptors:                  10
##########                        HBond_Donors:                   3
##########                         Heavy_Atoms:                  28
##########                          Grid_Score:          -33.806812
##########                     Grid_vdw_energy:          -32.313999
##########                      Grid_es_energy:           -1.492814
##########           Internal_energy_repulsive:           39.033009

@<TRIPOS>MOLECULE
ZINC001573443776
 54 56 1 0 0
SMALL
USER_CHARGES


@<TRIPOS>ATOM
      1 C1         -6.5808    1.6484   51.4253 C.3     1  ZINC001573443776   -0.1800
      2 C2         -7.5412    0.5525   51.8093 C.2     1  ZINC001573443776    0.5100
      3 O3         -7.1605   -0.5981   51.8578 O.2     1  ZINC001573443776   -0.5400
      4 N4         -8.8232    0.8509   52.0989 N.am    1  ZINC001573443776   -0.6100
      5 C5         -9.2991    2.2399   52.0445 C.3     1  ZINC001573443776    0.1100
      6 C6         -9.9589    2.5878   53.3827 C.3     1  ZINC001573443776   -0.1300
      7 C7        -11.0508    1.5608   53.6908 C.3     1  ZINC001573443776   -0.1000
      8 C8        -10.4259    0.1688   53.8079 C.3     1  ZINC001573443776   -0.1200
      9 H9         -9.6716    0.1736   54.5948 H       1  ZINC001573443776    0.1000
     10 C10       -11.4969   -0.8368   54.1440 C.2     1  ZINC001573443776    0.5200
     11 O11       -11.4558   -1.9498   53.6641 O.2     1  ZINC001573443776   -0.5300
     12 N12       -12.5004   -0.4990   54.9779 N.am    1  ZINC001573443776   -0.7300
     13 C13       -13.5406   -1.4770   55.3060 C.3     1  ZINC001573443776    0.1100
     14 C14       -13.3964   -1.9039   56.7682 C.3     1  ZINC001573443776    0.1400
     15 H15       -13.6032   -1.0529   57.4171 H       1  ZINC001573443776    0.0900
     16 C16       -14.3878   -3.0291   57.0712 C.3     1  ZINC001573443776   -0.1700
     17 N17       -12.0311   -2.3789   57.0058 N.pl3   1  ZINC001573443776   -0.7200
     18 C18       -11.3278   -1.9416   58.1213 C.ar    1  ZINC001573443776    0.4300
     19 C19       -11.5079   -2.5847   59.3425 C.ar    1  ZINC001573443776   -0.2500
     20 C20       -10.8046   -2.1441   60.4465 C.ar    1  ZINC001573443776    0.0100
     21 C21        -9.9330   -1.0609   60.2915 C.ar    1  ZINC001573443776   -0.1400
     22 C22        -9.1544   -0.5505   61.4475 C.2     1  ZINC001573443776    0.2400
     23 N23        -7.8833   -0.7858   61.7062 N.2     1  ZINC001573443776   -0.3000
     24 N24        -7.5813   -0.1665   62.7952 N.pl3   1  ZINC001573443776   -0.2300
     25 N25        -8.6204    0.4537   63.2347 N.2     1  ZINC001573443776   -0.0500
     26 N26        -9.6052    0.2442   62.4286 N.2     1  ZINC001573443776   -0.2700
     27 C27        -9.8055   -0.4687   59.0386 C.ar    1  ZINC001573443776    0.2300
     28 C28        -8.8702    0.6989   58.8575 C.3     1  ZINC001573443776   -0.1200
     29 N29       -10.4905   -0.9215   58.0078 N.ar    1  ZINC001573443776   -0.5400
     30 C30        -9.7729   -0.2073   52.4692 C.3     1  ZINC001573443776    0.1200
     31 H31        -6.5396    1.7313   50.3391 H       1  ZINC001573443776    0.0900
     32 H32        -6.9195    2.5936   51.8492 H       1  ZINC001573443776    0.0800
     33 H33        -5.5883    1.4128   51.8094 H       1  ZINC001573443776    0.1000
     34 H34        -8.4564    2.9082   51.8679 H       1  ZINC001573443776    0.1000
     35 H35       -10.0269    2.3455   51.2399 H       1  ZINC001573443776    0.0700
     36 H36        -9.2089    2.5699   54.1735 H       1  ZINC001573443776    0.0700
     37 H37       -10.4011    3.5822   53.3225 H       1  ZINC001573443776    0.0800
     38 H38       -11.5385    1.8201   54.6305 H       1  ZINC001573443776    0.0800
     39 H39       -11.7873    1.5618   52.8873 H       1  ZINC001573443776    0.0700
     40 H40       -12.5340    0.3915   55.3608 H       1  ZINC001573443776    0.4000
     41 H41       -14.5223   -1.0285   55.1535 H       1  ZINC001573443776    0.0900
     42 H42       -13.4356   -2.3494   54.6608 H       1  ZINC001573443776    0.0800
     43 H43       -15.4037   -2.6758   56.8943 H       1  ZINC001573443776    0.0700
     44 H44       -14.1810   -3.8801   56.4222 H       1  ZINC001573443776    0.0700
     45 H45       -14.2852   -3.3332   58.1128 H       1  ZINC001573443776    0.0700
     46 H46       -11.6181   -2.9986   56.3843 H       1  ZINC001573443776    0.4100
     47 H47       -12.1897   -3.4181   59.4259 H       1  ZINC001573443776    0.1400
     48 H48       -10.9251   -2.6241   61.4064 H       1  ZINC001573443776    0.1400
     49 H49        -6.7081   -0.1675   63.2177 H       1  ZINC001573443776    0.4800
     50 H50        -7.8802    0.3327   58.5854 H       1  ZINC001573443776    0.0800
     51 H51        -9.2475    1.3475   58.0670 H       1  ZINC001573443776    0.0800
     52 H52        -8.8061    1.2610   59.7891 H       1  ZINC001573443776    0.1100
     53 H53       -10.5410   -0.3013   51.7015 H       1  ZINC001573443776    0.0800
     54 H54        -9.2413   -1.1530   52.5748 H       1  ZINC001573443776    0.0900
@<TRIPOS>BOND
     1     1     2    1
     2     1    31    1
     3     1    32    1
     4     1    33    1
     5     2     3    2
     6     2     4   am
     7     4    30    1
     8     4     5    1
     9     5     6    1
    10     5    34    1
    11     5    35    1
    12     6     7    1
    13     6    36    1
    14     6    37    1
    15     7     8    1
    16     7    38    1
    17     7    39    1
    18     8     9    1
    19     8    10    1
    20     8    30    1
    21    10    11    2
    22    10    12   am
    23    12    13    1
    24    12    40    1
    25    13    14    1
    26    13    41    1
    27    13    42    1
    28    14    15    1
    29    14    16    1
    30    14    17    1
    31    16    43    1
    32    16    44    1
    33    16    45    1
    34    17    18    1
    35    17    46    1
    36    18    29   ar
    37    18    19   ar
    38    19    20   ar
    39    19    47    1
    40    20    21   ar
    41    20    48    1
    42    21    22    1
    43    21    27   ar
    44    22    26    1
    45    22    23    2
    46    23    24    1
    47    24    25    1
    48    24    49    1
    49    25    26    2
    50    27    28    1
    51    27    29   ar
    52    28    50    1
    53    28    51    1
    54    28    52    1
    55    30    53    1
    56    30    54    1
@<TRIPOS>SUBSTRUCTURE
     1 ZINC001573443776        1 TEMP              0 ****  ****    0 ROOT


##########                                Name:    ZINC001191196975
##########                DOCK_Rotatable_Bonds:                  14
##########                         Heavy_Atoms:                  24
##########                    Molecular_Weight:             339.438
##########                DOCK_Rotatable_Bonds:                  14
##########                       Formal_Charge:          0.00999969
##########                     HBond_Acceptors:                   8
##########                        HBond_Donors:                   4
##########                         Heavy_Atoms:                  24
##########                          Grid_Score:          -33.804779
##########                     Grid_vdw_energy:          -32.664139
##########                      Grid_es_energy:           -1.140639
##########           Internal_energy_repulsive:           11.811125

@<TRIPOS>MOLECULE
ZINC001191196975
 53 53 1 0 0
SMALL
USER_CHARGES


@<TRIPOS>ATOM
      1 C1        -13.3321   -0.4695   47.7502 C.2     1  ZINC001191196975   -0.1600
      2 C2        -13.8440    0.0798   48.8237 C.2     1  ZINC001191196975   -0.1800
      3 C3        -13.0123    1.0181   49.6598 C.3     1  ZINC001191196975    0.1500
      4 N4        -12.0986    0.2422   50.5019 N.am    1  ZINC001191196975   -0.7300
      5 C5        -11.5291    0.8128   51.5819 C.2     1  ZINC001191196975    0.5100
      6 O6        -11.7741    1.9682   51.8574 O.2     1  ZINC001191196975   -0.5200
      7 C7        -10.5876    0.0151   52.4471 C.3     1  ZINC001191196975    0.0300
      8 N8        -10.0736    0.8682   53.5270 N.3     1  ZINC001191196975   -0.5100
      9 C9        -10.4762    0.3524   54.8423 C.3     1  ZINC001191196975    0.0200
     10 C10        -8.6136    1.0054   53.4398 C.3     1  ZINC001191196975    0.0700
     11 H11        -8.1199    0.0628   53.6763 H       1  ZINC001191196975    0.0600
     12 C12        -8.1061    2.1457   54.3614 C.3     1  ZINC001191196975   -0.1200
     13 C13        -6.7994    2.5916   53.6721 C.3     1  ZINC001191196975    0.1000
     14 N14        -6.8851    2.1770   52.2642 N.am    1  ZINC001191196975   -0.6200
     15 C15        -5.9313    2.3645   51.3307 C.2     1  ZINC001191196975    0.5300
     16 O16        -6.1111    1.9805   50.1944 O.2     1  ZINC001191196975   -0.5400
     17 C17        -4.6414    3.0512   51.6987 C.3     1  ZINC001191196975   -0.1300
     18 C18        -3.5234    2.5664   50.7734 C.3     1  ZINC001191196975   -0.1000
     19 C19        -2.2361    3.3327   51.0840 C.3     1  ZINC001191196975   -0.1300
     20 C20        -1.0662    2.6881   50.3379 C.3     1  ZINC001191196975    0.1400
     21 N21        -1.2332    2.8935   48.8970 N.am    1  ZINC001191196975   -0.7500
     22 C22        -0.6854    2.0246   48.0245 C.2     1  ZINC001191196975    0.7000
     23 N23        -0.8404    2.2127   46.6990 N.am    1  ZINC001191196975   -0.8700
     24 O24        -0.0513    1.0710   48.4332 O.2     1  ZINC001191196975   -0.5900
     25 C25        -8.1869    1.5204   52.0425 C.3     1  ZINC001191196975    0.1100
     26 H26       -12.3140   -0.2500   47.4645 H       1  ZINC001191196975    0.1000
     27 H27       -13.9268   -1.1453   47.1536 H       1  ZINC001191196975    0.1000
     28 H28       -14.8622   -0.1396   49.1095 H       1  ZINC001191196975    0.1200
     29 H29       -12.4363    1.6732   49.0063 H       1  ZINC001191196975    0.0800
     30 H30       -13.6668    1.6189   50.2913 H       1  ZINC001191196975    0.0700
     31 H31       -11.9035   -0.6822   50.2822 H       1  ZINC001191196975    0.4000
     32 H32       -11.1199   -0.8336   52.8767 H       1  ZINC001191196975    0.0700
     33 H33        -9.7559   -0.3459   51.8423 H       1  ZINC001191196975    0.1100
     34 H34       -10.1760   -0.6918   54.9306 H       1  ZINC001191196975    0.0200
     35 H35        -9.9930    0.9368   55.6252 H       1  ZINC001191196975    0.0700
     36 H36       -11.5584    0.4294   54.9470 H       1  ZINC001191196975    0.0900
     37 H37        -8.8246    2.9648   54.3929 H       1  ZINC001191196975    0.0900
     38 H38        -7.9042    1.7698   55.3645 H       1  ZINC001191196975    0.0800
     39 H39        -6.6987    3.6752   53.7340 H       1  ZINC001191196975    0.0700
     40 H40        -5.9457    2.1101   54.1490 H       1  ZINC001191196975    0.0700
     41 H41        -4.7603    4.1294   51.5911 H       1  ZINC001191196975    0.0900
     42 H42        -4.3860    2.8151   52.7317 H       1  ZINC001191196975    0.0900
     43 H43        -3.3585    1.5005   50.9303 H       1  ZINC001191196975    0.0800
     44 H44        -3.8090    2.7411   49.7361 H       1  ZINC001191196975    0.0800
     45 H45        -2.3442    4.3692   50.7641 H       1  ZINC001191196975    0.0700
     46 H46        -2.0444    3.3016   52.1565 H       1  ZINC001191196975    0.0700
     47 H47        -0.1316    3.1444   50.6640 H       1  ZINC001191196975    0.0700
     48 H48        -1.0431    1.6196   50.5523 H       1  ZINC001191196975    0.0700
     49 H49        -1.7380    3.6549   48.5709 H       1  ZINC001191196975    0.4000
     50 H50        -0.4470    1.5866   46.0710 H       1  ZINC001191196975    0.4000
     51 H51        -1.3452    2.9741   46.3729 H       1  ZINC001191196975    0.4200
     52 H52        -8.0784    0.6881   51.3471 H       1  ZINC001191196975    0.0800
     53 H53        -8.9147    2.2387   51.6651 H       1  ZINC001191196975    0.0800
@<TRIPOS>BOND
     1     1     2    2
     2     1    26    1
     3     1    27    1
     4     2     3    1
     5     2    28    1
     6     3     4    1
     7     3    29    1
     8     3    30    1
     9     4     5   am
    10     4    31    1
    11     5     6    2
    12     5     7    1
    13     7     8    1
    14     7    32    1
    15     7    33    1
    16     8     9    1
    17     8    10    1
    18     9    34    1
    19     9    35    1
    20     9    36    1
    21    10    11    1
    22    10    25    1
    23    10    12    1
    24    12    13    1
    25    12    37    1
    26    12    38    1
    27    13    14    1
    28    13    39    1
    29    13    40    1
    30    14    15   am
    31    14    25    1
    32    15    16    2
    33    15    17    1
    34    17    18    1
    35    17    41    1
    36    17    42    1
    37    18    19    1
    38    18    43    1
    39    18    44    1
    40    19    20    1
    41    19    45    1
    42    19    46    1
    43    20    21    1
    44    20    47    1
    45    20    48    1
    46    21    22   am
    47    21    49    1
    48    22    23   am
    49    22    24    2
    50    23    50    1
    51    23    51    1
    52    25    52    1
    53    25    53    1
@<TRIPOS>SUBSTRUCTURE
     1 ZINC001191196975        1 TEMP              0 ****  ****    0 ROOT


##########                                Name:    ZINC001461256440
##########                DOCK_Rotatable_Bonds:                  13
##########                         Heavy_Atoms:                  26
##########                    Molecular_Weight:             367.445
##########                DOCK_Rotatable_Bonds:                  13
##########                       Formal_Charge:        -6.37025e-07
##########                     HBond_Acceptors:                   8
##########                        HBond_Donors:                   1
##########                         Heavy_Atoms:                  26
##########                          Grid_Score:          -33.698238
##########                     Grid_vdw_energy:          -32.577595
##########                      Grid_es_energy:           -1.120644
##########           Internal_energy_repulsive:           34.027908

@<TRIPOS>MOLECULE
ZINC001461256440
 55 55 1 0 0
SMALL
USER_CHARGES


@<TRIPOS>ATOM
      1 C1        -13.7666    0.5850   48.6592 C.3     1  ZINC001461256440   -0.1500
      2 C2        -12.8586    1.3238   49.6445 C.3     1  ZINC001461256440    0.0600
      3 O3        -12.1931    0.3614   50.5043 O.3     1  ZINC001461256440   -0.3600
      4 C4        -11.1974    0.8216   51.2778 C.2     1  ZINC001461256440    0.4400
      5 O5        -11.0054    2.0107   51.3714 O.2     1  ZINC001461256440   -0.4800
      6 C6        -10.3189   -0.1450   52.0295 C.3     1  ZINC001461256440    0.1400
      7 N7         -9.8714    0.4729   53.2802 N.pl3   1  ZINC001461256440   -0.3800
      8 N8        -10.6600    0.7010   54.4151 N.2     1  ZINC001461256440   -0.2800
      9 C9         -9.9141    1.2685   55.3283 C.2     1  ZINC001461256440    0.1000
     10 C10       -10.3670    1.6840   56.7042 C.3     1  ZINC001461256440   -0.0700
     11 C11        -8.6255    1.4223   54.8098 C.2     1  ZINC001461256440   -0.2700
     12 C12        -8.6222    0.9187   53.5453 C.2     1  ZINC001461256440    0.3100
     13 N13        -7.5310    0.8776   52.6775 N.am    1  ZINC001461256440   -0.6500
     14 C14        -7.1890    1.9741   51.9724 C.2     1  ZINC001461256440    0.5200
     15 O15        -7.8293    2.9971   52.0936 O.2     1  ZINC001461256440   -0.5000
     16 C16        -6.0112    1.9291   51.0335 C.3     1  ZINC001461256440   -0.1300
     17 C17        -4.8610    2.7511   51.6184 C.3     1  ZINC001461256440   -0.1100
     18 C18        -3.5863    2.4893   50.8137 C.3     1  ZINC001461256440   -0.1100
     19 C19        -2.5289    3.5330   51.1793 C.3     1  ZINC001461256440   -0.1200
     20 C20        -1.2617    3.2539   50.4131 C.2     1  ZINC001461256440    0.4600
     21 O21        -0.1903    3.5409   50.8922 O.2     1  ZINC001461256440   -0.5000
     22 O22        -1.3232    2.6863   49.1982 O.3     1  ZINC001461256440   -0.3500
     23 C23        -0.0643    2.2989   48.5871 C.3     1  ZINC001461256440    0.1200
     24 C24         0.7888    3.5453   48.3427 C.3     1  ZINC001461256440   -0.1800
     25 C25         0.6831    1.3442   49.5203 C.3     1  ZINC001461256440   -0.1400
     26 C26        -0.3383    1.5990   47.2545 C.3     1  ZINC001461256440   -0.1800
     27 H27       -14.2662    1.3075   48.0137 H       1  ZINC001461256440    0.0800
     28 H28       -13.1675   -0.0924   48.0508 H       1  ZINC001461256440    0.0700
     29 H29       -14.5131    0.0138   49.2111 H       1  ZINC001461256440    0.0700
     30 H30       -12.1122    1.8950   49.0925 H       1  ZINC001461256440    0.0700
     31 H31       -13.4578    2.0012   50.2529 H       1  ZINC001461256440    0.0700
     32 H32       -10.8831   -1.0504   52.2531 H       1  ZINC001461256440    0.1300
     33 H33        -9.4522   -0.3985   51.4191 H       1  ZINC001461256440    0.1400
     34 H34       -10.2188    0.8584   57.4003 H       1  ZINC001461256440    0.0800
     35 H35        -9.7860    2.5455   57.0332 H       1  ZINC001461256440    0.0800
     36 H36       -11.4241    1.9487   56.6743 H       1  ZINC001461256440    0.0700
     37 H37        -7.7815    1.8598   55.3225 H       1  ZINC001461256440    0.1800
     38 H38        -7.0183    0.0598   52.5816 H       1  ZINC001461256440    0.4100
     39 H39        -5.6897    0.8957   50.9031 H       1  ZINC001461256440    0.1000
     40 H40        -6.3002    2.3441   50.0679 H       1  ZINC001461256440    0.1000
     41 H41        -5.1104    3.8110   51.5694 H       1  ZINC001461256440    0.0800
     42 H42        -4.7004    2.4633   52.6573 H       1  ZINC001461256440    0.0800
     43 H43        -3.2088    1.4932   51.0450 H       1  ZINC001461256440    0.0700
     44 H44        -3.8089    2.5553   49.7487 H       1  ZINC001461256440    0.0700
     45 H45        -2.8963    4.5270   50.9244 H       1  ZINC001461256440    0.1100
     46 H46        -2.3250    3.4843   52.2490 H       1  ZINC001461256440    0.1100
     47 H47         0.9840    4.0438   49.2921 H       1  ZINC001461256440    0.0600
     48 H48         1.7339    3.2544   47.8839 H       1  ZINC001461256440    0.0700
     49 H49         0.2564    4.2254   47.6779 H       1  ZINC001461256440    0.0800
     50 H50         0.0754    0.4564   49.6945 H       1  ZINC001461256440    0.0700
     51 H51         1.6281    1.0535   49.0616 H       1  ZINC001461256440    0.0800
     52 H52         0.8784    1.8429   50.4698 H       1  ZINC001461256440    0.0700
     53 H53        -0.8708    2.2792   46.5896 H       1  ZINC001461256440    0.0800
     54 H54         0.6067    1.3082   46.7958 H       1  ZINC001461256440    0.0700
     55 H55        -0.9461    0.7112   47.4286 H       1  ZINC001461256440    0.0600
@<TRIPOS>BOND
     1     1     2    1
     2     1    27    1
     3     1    28    1
     4     1    29    1
     5     2     3    1
     6     2    30    1
     7     2    31    1
     8     3     4    1
     9     4     5    2
    10     4     6    1
    11     6     7    1
    12     6    32    1
    13     6    33    1
    14     7    12    1
    15     7     8    1
    16     8     9    2
    17     9    10    1
    18     9    11    1
    19    10    34    1
    20    10    35    1
    21    10    36    1
    22    11    12    2
    23    11    37    1
    24    12    13    1
    25    13    14   am
    26    13    38    1
    27    14    15    2
    28    14    16    1
    29    16    17    1
    30    16    39    1
    31    16    40    1
    32    17    18    1
    33    17    41    1
    34    17    42    1
    35    18    19    1
    36    18    43    1
    37    18    44    1
    38    19    20    1
    39    19    45    1
    40    19    46    1
    41    20    21    2
    42    20    22    1
    43    22    23    1
    44    23    24    1
    45    23    25    1
    46    23    26    1
    47    24    47    1
    48    24    48    1
    49    24    49    1
    50    25    50    1
    51    25    51    1
    52    25    52    1
    53    26    53    1
    54    26    54    1
    55    26    55    1
@<TRIPOS>SUBSTRUCTURE
     1 ZINC001461256440        1 TEMP              0 ****  ****    0 ROOT


##########                                Name:    ZINC000460972051
##########                DOCK_Rotatable_Bonds:                  10
##########                         Heavy_Atoms:                  29
##########                    Molecular_Weight:             417.572
##########                DOCK_Rotatable_Bonds:                  10
##########                       Formal_Charge:         3.31551e-07
##########                     HBond_Acceptors:                   7
##########                        HBond_Donors:                   2
##########                         Heavy_Atoms:                  29
##########                          Grid_Score:          -33.674858
##########                     Grid_vdw_energy:          -30.683249
##########                      Grid_es_energy:           -2.991610
##########           Internal_energy_repulsive:           40.154537

@<TRIPOS>MOLECULE
ZINC000460972051
 60 61 1 0 0
SMALL
USER_CHARGES


@<TRIPOS>ATOM
      1 C1         -0.1466    5.9613   56.3623 C.3     1  ZINC000460972051   -0.1800
      2 C2         -1.5699    5.4003   56.3385 C.3     1  ZINC000460972051    0.1000
      3 N3         -1.6233    4.2420   55.4431 N.am    1  ZINC000460972051   -0.6200
      4 C4         -1.9101    4.4124   54.1372 C.2     1  ZINC000460972051    0.7100
      5 O5         -2.1259    5.5273   53.7027 O.2     1  ZINC000460972051   -0.5800
      6 N6         -1.9576    3.3470   53.3132 N.am    1  ZINC000460972051   -0.7400
      7 C7         -2.2676    3.5323   51.8934 C.3     1  ZINC000460972051    0.2000
      8 H8         -2.1385    4.5815   51.6273 H       1  ZINC000460972051    0.1100
      9 C9         -1.3251    2.6723   51.0491 C.3     1  ZINC000460972051    0.1100
     10 N10        -0.7867    3.4748   49.9479 N.am    1  ZINC000460972051   -1.1200
     11 S11        -0.1452    2.7284   48.6161 S.o2    1  ZINC000460972051    2.7000
     12 O12        -1.1388    1.8301   48.1419 O.2     1  ZINC000460972051   -0.9500
     13 O13         0.4202    3.7560   47.8137 O.2     1  ZINC000460972051   -0.9600
     14 C14         1.1995    1.7348   49.1721 C.ar    1  ZINC000460972051   -0.6900
     15 C15         1.7821    1.9849   50.4002 C.ar    1  ZINC000460972051   -0.0100
     16 C16         2.8373    1.2052   50.8364 C.ar    1  ZINC000460972051   -0.1500
     17 C17         3.3091    0.1753   50.0446 C.ar    1  ZINC000460972051   -0.0200
     18 C18         4.4595   -0.6743   50.5198 C.3     1  ZINC000460972051   -0.1300
     19 C19         2.7254   -0.0758   48.8166 C.ar    1  ZINC000460972051   -0.1500
     20 C20         1.6682    0.7013   48.3822 C.ar    1  ZINC000460972051    0.0300
     21 C21         1.0319    0.4276   47.0439 C.3     1  ZINC000460972051   -0.1700
     22 C22        -3.6934    3.1197   51.6325 C.ar    1  ZINC000460972051   -0.1000
     23 C23        -4.0938    2.7894   50.3513 C.ar    1  ZINC000460972051   -0.1000
     24 C24        -5.4016    2.4109   50.1119 C.ar    1  ZINC000460972051   -0.1200
     25 C25        -6.3088    2.3623   51.1537 C.ar    1  ZINC000460972051   -0.1200
     26 C26        -5.9082    2.6918   52.4350 C.ar    1  ZINC000460972051   -0.1200
     27 C27        -4.5993    3.0662   52.6751 C.ar    1  ZINC000460972051   -0.1000
     28 C28        -1.3651    2.8986   55.9671 C.3     1  ZINC000460972051    0.1500
     29 C29         0.1295    2.5886   55.8617 C.3     1  ZINC000460972051   -0.1600
     30 C30        -1.7977    2.8310   57.4331 C.3     1  ZINC000460972051   -0.1600
     31 H31        -0.1068    6.8230   57.0285 H       1  ZINC000460972051    0.0700
     32 H32         0.5404    5.1940   56.7194 H       1  ZINC000460972051    0.0600
     33 H33         0.1406    6.2663   55.3561 H       1  ZINC000460972051    0.0700
     34 H34        -1.8571    5.0952   57.3448 H       1  ZINC000460972051    0.0700
     35 H35        -2.2569    6.1676   55.9814 H       1  ZINC000460972051    0.0900
     36 H36        -1.7866    2.4574   53.6602 H       1  ZINC000460972051    0.4000
     37 H37        -0.5055    2.3132   51.6715 H       1  ZINC000460972051    0.0900
     38 H38        -1.8739    1.8219   50.6444 H       1  ZINC000460972051    0.0900
     39 H39        -0.8061    4.4432   49.9989 H       1  ZINC000460972051    0.4200
     40 H40         1.4135    2.7897   51.0189 H       1  ZINC000460972051    0.1400
     41 H41         3.2930    1.4011   51.7957 H       1  ZINC000460972051    0.1300
     42 H42         4.0747   -1.5258   51.0810 H       1  ZINC000460972051    0.0800
     43 H43         5.0265   -1.0317   49.6603 H       1  ZINC000460972051    0.0700
     44 H44         5.1093   -0.0797   51.1618 H       1  ZINC000460972051    0.0700
     45 H45         3.0938   -0.8807   48.1981 H       1  ZINC000460972051    0.1300
     46 H46         0.1522   -0.2011   47.1816 H       1  ZINC000460972051    0.0900
     47 H47         0.7365    1.3699   46.5825 H       1  ZINC000460972051    0.1000
     48 H48         1.7468   -0.0841   46.3995 H       1  ZINC000460972051    0.0900
     49 H49        -3.3850    2.8273   49.5373 H       1  ZINC000460972051    0.1200
     50 H50        -5.7146    2.1536   49.1108 H       1  ZINC000460972051    0.1200
     51 H51        -7.3308    2.0673   50.9665 H       1  ZINC000460972051    0.1200
     52 H52        -6.6170    2.6542   53.2490 H       1  ZINC000460972051    0.1200
     53 H53        -4.2863    3.3236   53.6762 H       1  ZINC000460972051    0.1200
     54 H54        -1.9294    2.1679   55.3877 H       1  ZINC000460972051    0.1000
     55 H55         0.4378    2.6367   54.8173 H       1  ZINC000460972051    0.0600
     56 H56         0.6939    3.3192   56.4410 H       1  ZINC000460972051    0.0600
     57 H57         0.3217    1.5890   56.2516 H       1  ZINC000460972051    0.0700
     58 H58        -2.8624    3.0519   57.5083 H       1  ZINC000460972051    0.0600
     59 H59        -1.6056    1.8315   57.8230 H       1  ZINC000460972051    0.0700
     60 H60        -1.2333    3.5616   58.0125 H       1  ZINC000460972051    0.0600
@<TRIPOS>BOND
     1     1     2    1
     2     1    31    1
     3     1    32    1
     4     1    33    1
     5     2     3    1
     6     2    34    1
     7     2    35    1
     8     3     4   am
     9     3    28    1
    10     4     5    2
    11     4     6   am
    12     6     7    1
    13     6    36    1
    14     7     8    1
    15     7     9    1
    16     7    22    1
    17     9    10    1
    18     9    37    1
    19     9    38    1
    20    10    11   am
    21    10    39    1
    22    11    12    2
    23    11    13    2
    24    11    14    1
    25    14    20   ar
    26    14    15   ar
    27    15    16   ar
    28    15    40    1
    29    16    17   ar
    30    16    41    1
    31    17    18    1
    32    17    19   ar
    33    18    42    1
    34    18    43    1
    35    18    44    1
    36    19    20   ar
    37    19    45    1
    38    20    21    1
    39    21    46    1
    40    21    47    1
    41    21    48    1
    42    22    27   ar
    43    22    23   ar
    44    23    24   ar
    45    23    49    1
    46    24    25   ar
    47    24    50    1
    48    25    26   ar
    49    25    51    1
    50    26    27   ar
    51    26    52    1
    52    27    53    1
    53    28    29    1
    54    28    30    1
    55    28    54    1
    56    29    55    1
    57    29    56    1
    58    29    57    1
    59    30    58    1
    60    30    59    1
    61    30    60    1
@<TRIPOS>SUBSTRUCTURE
     1 ZINC000460972051        1 TEMP              0 ****  ****    0 ROOT


##########                                Name:    ZINC000442010511
##########                DOCK_Rotatable_Bonds:                  11
##########                         Heavy_Atoms:                  31
##########                    Molecular_Weight:             422.481
##########                DOCK_Rotatable_Bonds:                  11
##########                       Formal_Charge:          -0.0200005
##########                     HBond_Acceptors:                   7
##########                        HBond_Donors:                   2
##########                         Heavy_Atoms:                  31
##########                          Grid_Score:          -33.649498
##########                     Grid_vdw_energy:          -31.912153
##########                      Grid_es_energy:           -1.737344
##########           Internal_energy_repulsive:           14.204462

@<TRIPOS>MOLECULE
ZINC000442010511
 57 59 1 0 0
SMALL
USER_CHARGES


@<TRIPOS>ATOM
      1 C1         -2.3805    3.3507   51.3529 C.3     1  ZINC000442010511   -0.1500
      2 C2         -3.3629    3.8240   52.4261 C.3     1  ZINC000442010511   -0.0500
      3 C3         -4.6902    3.1378   52.2300 C.2     1  ZINC000442010511    0.0000
      4 C4         -5.1345    2.5982   51.0808 C.2     1  ZINC000442010511   -0.2100
      5 C5         -6.4168    2.0656   51.3472 C.2     1  ZINC000442010511   -0.1900
      6 C6         -6.6793    2.3116   52.6433 C.2     1  ZINC000442010511   -0.0300
      7 C7         -7.9372    1.9233   53.3768 C.3     1  ZINC000442010511    0.2400
      8 H8         -8.6653    2.7310   53.3022 H       1  ZINC000442010511    0.1400
      9 C9         -8.5192    0.6528   52.7542 C.3     1  ZINC000442010511    0.0500
     10 O10        -9.7527    0.3284   53.3987 O.3     1  ZINC000442010511   -0.3800
     11 C11       -10.4572   -0.7572   52.7927 C.3     1  ZINC000442010511    0.0300
     12 N12        -7.6241    1.6770   54.7867 N.am    1  ZINC000442010511   -0.6900
     13 C13        -8.5748    1.8435   55.7273 C.2     1  ZINC000442010511    0.5200
     14 O14        -9.6900    2.1989   55.4065 O.2     1  ZINC000442010511   -0.5100
     15 C15        -8.2562    1.5907   57.1642 C.2     1  ZINC000442010511    0.5100
     16 O16        -7.1001    1.4950   57.5216 O.2     1  ZINC000442010511   -0.5000
     17 N17        -9.2521    1.4687   58.0639 N.am    1  ZINC000442010511   -0.6300
     18 C18        -8.9537    1.2319   59.4096 C.ar    1  ZINC000442010511    0.1200
     19 C19        -8.6138    2.2879   60.2431 C.ar    1  ZINC000442010511   -0.1000
     20 C20        -8.3193    2.0512   61.5726 C.ar    1  ZINC000442010511   -0.1300
     21 C21        -8.3623    0.7639   62.0755 C.ar    1  ZINC000442010511   -0.0900
     22 C22        -8.6997   -0.2939   61.2514 C.ar    1  ZINC000442010511   -0.1700
     23 C23        -9.0024   -0.0651   59.9189 C.ar    1  ZINC000442010511    0.1000
     24 O24        -9.3342   -1.1039   59.1074 O.3     1  ZINC000442010511   -0.2600
     25 C25       -10.6323   -1.5046   59.0824 C.ar    1  ZINC000442010511    0.0800
     26 C26       -11.2875   -1.8128   60.2662 C.ar    1  ZINC000442010511   -0.1300
     27 C27       -12.6073   -2.2196   60.2381 C.ar    1  ZINC000442010511   -0.1100
     28 C28       -13.2754   -2.3203   59.0316 C.ar    1  ZINC000442010511   -0.0800
     29 C29       -14.7151   -2.7648   59.0039 C.3     1  ZINC000442010511   -0.1200
     30 C30       -12.6250   -2.0134   57.8506 C.ar    1  ZINC000442010511   -0.1100
     31 C31       -11.3068   -1.6011   57.8736 C.ar    1  ZINC000442010511   -0.1100
     32 O32        -5.6275    2.9562   53.1744 O.3     1  ZINC000442010511   -0.1600
     33 H33        -2.2471    2.2719   51.4329 H       1  ZINC000442010511    0.0600
     34 H34        -2.7741    3.5959   50.3665 H       1  ZINC000442010511    0.0600
     35 H35        -1.4205    3.8470   51.4947 H       1  ZINC000442010511    0.0700
     36 H36        -2.9693    3.5788   53.4125 H       1  ZINC000442010511    0.0900
     37 H37        -3.4963    4.9029   52.3461 H       1  ZINC000442010511    0.0800
     38 H38        -4.6123    2.5764   50.1357 H       1  ZINC000442010511    0.1500
     39 H39        -7.0620    1.5589   50.6448 H       1  ZINC000442010511    0.1500
     40 H40        -8.6968    0.8173   51.6915 H       1  ZINC000442010511    0.0700
     41 H41        -7.8153   -0.1697   52.8819 H       1  ZINC000442010511    0.0700
     42 H42       -11.3818   -0.9410   53.3400 H       1  ZINC000442010511    0.0900
     43 H43       -10.6910   -0.5062   51.7582 H       1  ZINC000442010511    0.0400
     44 H44        -9.8360   -1.6525   52.8179 H       1  ZINC000442010511    0.0400
     45 H45        -6.7323    1.3942   55.0432 H       1  ZINC000442010511    0.4200
     46 H46       -10.1759    1.5452   57.7782 H       1  ZINC000442010511    0.4300
     47 H47        -8.5791    3.2944   59.8532 H       1  ZINC000442010511    0.1600
     48 H48        -8.0546    2.8739   62.2203 H       1  ZINC000442010511    0.1300
     49 H49        -8.1314    0.5841   63.1150 H       1  ZINC000442010511    0.1300
     50 H50        -8.7315   -1.2980   61.6475 H       1  ZINC000442010511    0.1300
     51 H51       -10.7659   -1.7350   61.2087 H       1  ZINC000442010511    0.1300
     52 H52       -13.1177   -2.4595   61.1591 H       1  ZINC000442010511    0.1300
     53 H53       -15.3658   -1.8940   59.0837 H       1  ZINC000442010511    0.0700
     54 H54       -14.9169   -3.2845   58.0673 H       1  ZINC000442010511    0.0700
     55 H55       -14.9038   -3.4374   59.8406 H       1  ZINC000442010511    0.0700
     56 H56       -13.1491   -2.0929   56.9097 H       1  ZINC000442010511    0.1300
     57 H57       -10.7993   -1.3613   56.9509 H       1  ZINC000442010511    0.1300
@<TRIPOS>BOND
     1     1     2    1
     2     1    33    1
     3     1    34    1
     4     1    35    1
     5     2     3    1
     6     2    36    1
     7     2    37    1
     8     3    32    1
     9     3     4    2
    10     4     5    1
    11     4    38    1
    12     5     6    2
    13     5    39    1
    14     6     7    1
    15     6    32    1
    16     7     8    1
    17     7     9    1
    18     7    12    1
    19     9    10    1
    20     9    40    1
    21     9    41    1
    22    10    11    1
    23    11    42    1
    24    11    43    1
    25    11    44    1
    26    12    13   am
    27    12    45    1
    28    13    14    2
    29    13    15    1
    30    15    16    2
    31    15    17   am
    32    17    18    1
    33    17    46    1
    34    18    23   ar
    35    18    19   ar
    36    19    20   ar
    37    19    47    1
    38    20    21   ar
    39    20    48    1
    40    21    22   ar
    41    21    49    1
    42    22    23   ar
    43    22    50    1
    44    23    24    1
    45    24    25    1
    46    25    31   ar
    47    25    26   ar
    48    26    27   ar
    49    26    51    1
    50    27    28   ar
    51    27    52    1
    52    28    29    1
    53    28    30   ar
    54    29    53    1
    55    29    54    1
    56    29    55    1
    57    30    31   ar
    58    30    56    1
    59    31    57    1
@<TRIPOS>SUBSTRUCTURE
     1 ZINC000442010511        1 TEMP              0 ****  ****    0 ROOT


##########                                Name:     oleObject27.pdb
##########                DOCK_Rotatable_Bonds:                   9
##########                         Heavy_Atoms:                  35
##########                    Molecular_Weight:             513.466
##########                DOCK_Rotatable_Bonds:                   9
##########                       Formal_Charge:         0.000199873
##########                     HBond_Acceptors:                   8
##########                        HBond_Donors:                   1
##########                         Heavy_Atoms:                  35
##########                          Grid_Score:          -33.482819
##########                     Grid_vdw_energy:          -33.175835
##########                      Grid_es_energy:           -0.306983
##########           Internal_energy_repulsive:           12.211582

@<TRIPOS>MOLECULE
oleObject27.pdb
 65 68 1 0 0
SMALL
NO_CHARGES


@<TRIPOS>ATOM
      1 C          -2.6790    2.5690   51.7706 C.ar    1  UNL        -0.0620
      2 C          -3.1807    2.9707   53.0169 C.ar    1  UNL        -0.0590
      3 C          -4.5174    3.3934   53.1524 C.ar    1  UNL        -0.0456
      4 C          -5.3676    3.4064   52.0186 C.ar    1  UNL        -0.0187
      5 C          -4.8448    3.0097   50.7681 C.ar    1  UNL        -0.0565
      6 C          -3.5116    2.5919   50.6442 C.ar    1  UNL        -0.0619
      7 C          -6.8320    3.8597   52.1286 C.3     1  UNL         0.0921
      8 C          -7.2662    4.7447   50.9560 C.ar    1  UNL         0.0681
      9 C          -7.0304    6.1423   50.9376 C.ar    1  UNL        -0.0272
     10 C          -7.4750    6.8800   49.8242 C.ar    1  UNL        -0.0559
     11 C          -8.1397    6.2142   48.7841 C.ar    1  UNL        -0.0435
     12 C          -8.3444    4.8307   48.8937 C.ar    1  UNL         0.0272
     13 N          -7.9228    4.1161   49.9539 N.ar    1  UNL        -0.2587
     14 C          -6.3288    6.8657   52.0814 C.3     1  UNL        -0.0379
     15 N          -7.7678    2.7381   52.2946 N.am    1  UNL        -0.2865
     16 C          -9.0601    2.8725   52.7691 C.2     1  UNL         0.3014
     17 O          -9.5171    3.9561   53.0928 O.2     1  UNL        -0.2541
     18 N          -9.7955    1.6889   52.8555 N.am    1  UNL        -0.2833
     19 C          -9.2280    0.3699   52.4635 C.3     1  UNL         0.0284
     20 C         -10.2697   -0.7595   52.2738 C.3     1  UNL         0.0142
     21 N         -11.2543   -0.8094   53.3685 N.4     1  UNL        -0.2979
     22 C         -11.9669    0.4813   53.4424 C.3     1  UNL         0.0142
     23 C         -11.0074    1.6635   53.7109 C.3     1  UNL         0.0284
     24 C         -10.6810   -1.3040   54.6434 C.3     1  UNL         0.0223
     25 C         -11.7060   -2.0463   55.5243 C.3     1  UNL         0.0661
     26 O         -11.2831   -1.9111   56.8924 O.3     1  UNL        -0.3432
     27 C         -12.1052   -2.1575   57.9751 C.ar    1  UNL         0.0937
     28 C         -13.4581   -2.5278   57.8187 C.ar    1  UNL        -0.0288
     29 C         -14.2596   -2.7695   58.9469 C.ar    1  UNL        -0.0408
     30 C         -13.7169   -2.6434   60.2353 C.ar    1  UNL         0.0422
     31 C         -12.3722   -2.2759   60.3992 C.ar    1  UNL        -0.0221
     32 C         -11.5682   -2.0337   59.2729 C.ar    1  UNL         0.0723
     33 CL         -9.8922   -1.5759   59.5122 Cl      1  UNL        -0.0814
     34 CL        -14.7183   -2.9454   61.6391 Cl      1  UNL        -0.0843
     35 C          -5.0072    3.8354   54.5274 C.3     1  UNL        -0.0394
     36 H          -1.6460    2.2465   51.6776 H       1  UNL         0.0623
     37 H          -2.5238    2.9552   53.8820 H       1  UNL         0.0626
     38 H          -5.4700    3.0299   49.8804 H       1  UNL         0.0627
     39 H          -3.1249    2.2886   49.6757 H       1  UNL         0.0623
     40 H          -6.9110    4.4505   53.0459 H       1  UNL         0.0625
     41 H          -7.3125    7.9526   49.7668 H       1  UNL         0.0627
     42 H          -8.4943    6.7588   47.9141 H       1  UNL         0.0639
     43 H          -8.8608    4.2773   48.1104 H       1  UNL         0.0840
     44 H          -6.8116    6.6480   53.0424 H       1  UNL         0.0280
     45 H          -6.3498    7.9543   51.9452 H       1  UNL         0.0280
     46 H          -5.2767    6.5634   52.1526 H       1  UNL         0.0280
     47 H          -7.4322    1.8078   52.0884 H       1  UNL         0.1521
     48 H          -8.5118    0.0664   53.2378 H       1  UNL         0.0484
     49 H          -8.6765    0.4676   51.5203 H       1  UNL         0.0484
     50 H          -9.7523   -1.7230   52.1805 H       1  UNL         0.0447
     51 H         -10.7984   -0.5829   51.3279 H       1  UNL         0.0447
     52 H         -12.7486    0.4597   54.2107 H       1  UNL         0.0447
     53 H         -12.4702    0.6627   52.4839 H       1  UNL         0.0447
     54 H         -10.6815    1.6278   54.7581 H       1  UNL         0.0484
     55 H         -11.5683    2.5969   53.5735 H       1  UNL         0.0484
     56 H         -10.2542   -0.4744   55.2212 H       1  UNL         0.0455
     57 H          -9.8636   -2.0019   54.4207 H       1  UNL         0.0455
     58 H         -11.7368   -3.1052   55.2374 H       1  UNL         0.0586
     59 H         -12.7031   -1.6080   55.3955 H       1  UNL         0.0586
     60 H         -13.8983   -2.6318   56.8323 H       1  UNL         0.0652
     61 H         -15.3005   -3.0543   58.8211 H       1  UNL         0.0639
     62 H         -11.9531   -2.1787   61.3967 H       1  UNL         0.0655
     63 H          -4.1920    3.8567   55.2613 H       1  UNL         0.0280
     64 H          -5.7746    3.1517   54.9112 H       1  UNL         0.0280
     65 H          -5.4351    4.8448   54.4895 H       1  UNL         0.0280
@<TRIPOS>BOND
     1     1     2   ar
     2     1     6   ar
     3     1    36    1
     4     2     3   ar
     5     2    37    1
     6     3     4   ar
     7     3    35    1
     8     4     5   ar
     9     4     7    1
    10     5     6   ar
    11     5    38    1
    12     6    39    1
    13     7     8    1
    14     7    15    1
    15     7    40    1
    16     8     9   ar
    17     8    13   ar
    18     9    10   ar
    19     9    14    1
    20    10    11   ar
    21    10    41    1
    22    11    12   ar
    23    11    42    1
    24    12    13   ar
    25    12    43    1
    26    14    44    1
    27    14    45    1
    28    14    46    1
    29    15    16   am
    30    15    47    1
    31    16    17    2
    32    16    18   am
    33    18    19    1
    34    18    23    1
    35    19    20    1
    36    19    48    1
    37    19    49    1
    38    20    21    1
    39    20    50    1
    40    20    51    1
    41    21    22    1
    42    21    24    1
    43    22    23    1
    44    22    52    1
    45    22    53    1
    46    23    54    1
    47    23    55    1
    48    24    25    1
    49    24    56    1
    50    24    57    1
    51    25    26    1
    52    25    58    1
    53    25    59    1
    54    26    27    1
    55    27    28   ar
    56    27    32   ar
    57    28    29   ar
    58    28    60    1
    59    29    30   ar
    60    29    61    1
    61    30    31   ar
    62    30    34    1
    63    31    32   ar
    64    31    62    1
    65    32    33    1
    66    35    63    1
    67    35    64    1
    68    35    65    1
@<TRIPOS>SUBSTRUCTURE
     1 UNL         1 TEMP              0 ****  ****    0 ROOT


##########                                Name:    ZINC000824084043
##########                DOCK_Rotatable_Bonds:                  11
##########                         Heavy_Atoms:                  27
##########                    Molecular_Weight:             382.547
##########                DOCK_Rotatable_Bonds:                  11
##########                       Formal_Charge:        -6.85453e-07
##########                     HBond_Acceptors:                   7
##########                        HBond_Donors:                   3
##########                         Heavy_Atoms:                  27
##########                          Grid_Score:          -33.360313
##########                     Grid_vdw_energy:          -30.473848
##########                      Grid_es_energy:           -2.886465
##########           Internal_energy_repulsive:           21.607534

@<TRIPOS>MOLECULE
ZINC000824084043
 65 66 1 0 0
SMALL
USER_CHARGES


@<TRIPOS>ATOM
      1 C1        -11.5551   -2.4039   60.6990 C.3     1  ZINC000824084043   -0.1400
      2 C2        -12.1398   -1.5301   59.5874 C.3     1  ZINC000824084043   -0.1000
      3 C3        -12.5258   -0.1654   60.1613 C.3     1  ZINC000824084043   -0.1300
      4 C4        -11.0966   -1.3427   58.4840 C.3     1  ZINC000824084043    0.1700
      5 H5        -10.6558   -2.3075   58.2331 H       1  ZINC000824084043    0.0700
      6 C6        -11.7674   -0.7503   57.2431 C.3     1  ZINC000824084043   -0.1400
      7 C7        -10.8962   -1.0198   56.0146 C.3     1  ZINC000824084043    0.1300
      8 N8        -11.5244   -0.4275   54.8310 N.am    1  ZINC000824084043   -0.6200
      9 C9        -12.9462   -0.6585   54.5634 C.3     1  ZINC000824084043    0.0800
     10 C10       -10.7945    0.3298   53.9884 C.2     1  ZINC000824084043    0.7000
     11 O11       -11.3153    0.8202   53.0053 O.2     1  ZINC000824084043   -0.5800
     12 N12        -9.4869    0.5436   54.2356 N.am    1  ZINC000824084043   -0.7500
     13 C13        -8.6928    1.3653   53.3188 C.3     1  ZINC000824084043    0.1600
     14 C14        -7.5706    2.0601   54.0954 C.3     1  ZINC000824084043   -0.1600
     15 C15        -6.6978    2.8528   53.1199 C.3     1  ZINC000824084043   -0.0100
     16 N16        -6.1164    1.9419   52.1266 N.4     1  ZINC000824084043   -0.3800
     17 H17        -5.5922    1.2208   52.5993 H       1  ZINC000824084043    0.4200
     18 C18        -5.2198    2.6950   51.2394 C.3     1  ZINC000824084043    0.0000
     19 C19        -3.8637    2.8808   51.9230 C.3     1  ZINC000824084043   -0.1200
     20 C20        -2.7133    2.7136   50.8994 C.3     1  ZINC000824084043   -0.1400
     21 C21        -1.5527    3.4997   51.5584 C.3     1  ZINC000824084043   -0.1200
     22 C22        -2.2403    4.7224   52.2004 C.3     1  ZINC000824084043   -0.1300
     23 C23        -3.7097    4.3288   52.4322 C.3     1  ZINC000824084043   -0.1100
     24 C24        -7.1844    1.3261   51.3300 C.3     1  ZINC000824084043    0.0000
     25 C25        -8.0758    0.4746   52.2366 C.3     1  ZINC000824084043   -0.1600
     26 N26       -10.0476   -0.4338   58.9530 N.am    1  ZINC000824084043   -0.7800
     27 C27        -8.9233   -0.9305   59.5059 C.2     1  ZINC000824084043    0.6600
     28 O28        -8.0469   -0.1718   59.8960 O.co2   1  ZINC000824084043   -0.7200
     29 O29        -8.7795   -2.1400   59.6175 O.co2   1  ZINC000824084043   -0.7300
     30 H30       -12.2983   -2.5373   61.4850 H       1  ZINC000824084043    0.0500
     31 H31       -11.2800   -3.3761   60.2901 H       1  ZINC000824084043    0.0500
     32 H32       -10.6705   -1.9207   61.1136 H       1  ZINC000824084043    0.0500
     33 H33       -13.0245   -2.0133   59.1727 H       1  ZINC000824084043    0.0500
     34 H34       -11.6412    0.3179   60.5759 H       1  ZINC000824084043    0.0600
     35 H35       -12.9425    0.4571   59.3694 H       1  ZINC000824084043    0.0700
     36 H36       -13.2690   -0.2988   60.9474 H       1  ZINC000824084043    0.0300
     37 H37       -12.7451   -1.2115   57.1035 H       1  ZINC000824084043    0.0700
     38 H38       -11.8884    0.3251   57.3739 H       1  ZINC000824084043    0.0600
     39 H39        -9.9115   -0.5768   56.1633 H       1  ZINC000824084043    0.0900
     40 H40       -10.7930   -2.0954   55.8713 H       1  ZINC000824084043    0.0900
     41 H41       -13.5375    0.1216   55.0428 H       1  ZINC000824084043    0.0600
     42 H42       -13.1215   -0.6381   53.4878 H       1  ZINC000824084043    0.0600
     43 H43       -13.2373   -1.6309   54.9606 H       1  ZINC000824084043    0.0800
     44 H44        -9.0715    0.1533   55.0206 H       1  ZINC000824084043    0.4000
     45 H45        -9.3332    2.1143   52.8531 H       1  ZINC000824084043    0.1100
     46 H46        -8.0029    2.7384   54.8309 H       1  ZINC000824084043    0.1200
     47 H47        -6.9618    1.3118   54.6028 H       1  ZINC000824084043    0.0900
     48 H48        -7.3075    3.6009   52.6132 H       1  ZINC000824084043    0.1300
     49 H49        -5.8979    3.3489   53.6696 H       1  ZINC000824084043    0.1300
     50 H50        -5.0849    2.1455   50.3078 H       1  ZINC000824084043    0.1300
     51 H51        -5.6557    3.6709   51.0257 H       1  ZINC000824084043    0.1300
     52 H52        -3.7516    2.1734   52.7447 H       1  ZINC000824084043    0.1000
     53 H53        -2.4503    1.6624   50.7821 H       1  ZINC000824084043    0.0700
     54 H54        -2.9829    3.1550   49.9399 H       1  ZINC000824084043    0.0800
     55 H55        -1.0650    2.8922   52.3207 H       1  ZINC000824084043    0.0700
     56 H56        -0.8323    3.8190   50.8053 H       1  ZINC000824084043    0.0800
     57 H57        -1.7636    4.9624   53.1508 H       1  ZINC000824084043    0.0700
     58 H58        -2.1846    5.5780   51.5276 H       1  ZINC000824084043    0.0700
     59 H59        -4.3671    4.9935   51.8719 H       1  ZINC000824084043    0.0700
     60 H60        -3.9461    4.3779   53.4951 H       1  ZINC000824084043    0.0800
     61 H61        -7.7836    2.1067   50.8614 H       1  ZINC000824084043    0.1300
     62 H62        -6.7437    0.6951   50.5582 H       1  ZINC000824084043    0.1300
     63 H63        -7.4776   -0.3065   52.7055 H       1  ZINC000824084043    0.0900
     64 H64        -8.8692    0.0197   51.6435 H       1  ZINC000824084043    0.1200
     65 H65       -10.1623    0.5254   58.8656 H       1  ZINC000824084043    0.3600
@<TRIPOS>BOND
     1     1     2    1
     2     1    30    1
     3     1    31    1
     4     1    32    1
     5     2     3    1
     6     2     4    1
     7     2    33    1
     8     3    34    1
     9     3    35    1
    10     3    36    1
    11     4     5    1
    12     4     6    1
    13     4    26    1
    14     6     7    1
    15     6    37    1
    16     6    38    1
    17     7     8    1
    18     7    39    1
    19     7    40    1
    20     8     9    1
    21     8    10   am
    22     9    41    1
    23     9    42    1
    24     9    43    1
    25    10    11    2
    26    10    12   am
    27    12    13    1
    28    12    44    1
    29    13    25    1
    30    13    14    1
    31    13    45    1
    32    14    15    1
    33    14    46    1
    34    14    47    1
    35    15    16    1
    36    15    48    1
    37    15    49    1
    38    16    17    1
    39    16    18    1
    40    16    24    1
    41    18    19    1
    42    18    50    1
    43    18    51    1
    44    19    23    1
    45    19    20    1
    46    19    52    1
    47    20    21    1
    48    20    53    1
    49    20    54    1
    50    21    22    1
    51    21    55    1
    52    21    56    1
    53    22    23    1
    54    22    57    1
    55    22    58    1
    56    23    59    1
    57    23    60    1
    58    24    25    1
    59    24    61    1
    60    24    62    1
    61    25    63    1
    62    25    64    1
    63    26    27   am
    64    26    65    1
    65    27    28   ar
    66    27    29   ar
@<TRIPOS>SUBSTRUCTURE
     1 ZINC000824084043        1 TEMP              0 ****  ****    0 ROOT


##########                                Name:    ZINC000058174787
##########                DOCK_Rotatable_Bonds:                   9
##########                         Heavy_Atoms:                  27
##########                    Molecular_Weight:             413.882
##########                DOCK_Rotatable_Bonds:                   9
##########                       Formal_Charge:           0.0200002
##########                     HBond_Acceptors:                  10
##########                        HBond_Donors:                   1
##########                         Heavy_Atoms:                  27
##########                          Grid_Score:          -33.344078
##########                     Grid_vdw_energy:          -30.195200
##########                      Grid_es_energy:           -3.148877
##########           Internal_energy_repulsive:            7.143074

@<TRIPOS>MOLECULE
ZINC000058174787
 47 48 1 0 0
SMALL
USER_CHARGES


@<TRIPOS>ATOM
      1 C1          3.9488    0.1680   47.1628 C.3     1  ZINC000058174787   -0.0700
      2 C2          2.6788    0.4455   47.9252 C.2     1  ZINC000058174787    0.2100
      3 N3          1.8189    1.3887   47.6528 N.2     1  ZINC000058174787   -0.4200
      4 C4          0.8125    1.3387   48.5381 C.2     1  ZINC000058174787   -0.5600
      5 S5         -0.5858    2.4100   48.5777 S.o2    1  ZINC000058174787    2.7400
      6 O6         -0.1254    3.6864   48.1557 O.2     1  ZINC000058174787   -0.9500
      7 O7         -1.6436    1.7133   47.9337 O.2     1  ZINC000058174787   -0.9600
      8 N8         -1.0321    2.5750   50.1640 N.am    1  ZINC000058174787   -1.1100
      9 C9         -2.1776    3.4164   50.5189 C.3     1  ZINC000058174787    0.1300
     10 C10        -2.8442    2.8646   51.7807 C.3     1  ZINC000058174787   -0.1200
     11 C11        -3.9011    3.8291   52.2533 C.2     1  ZINC000058174787    0.4700
     12 O12        -3.8493    4.9907   51.9249 O.2     1  ZINC000058174787   -0.5000
     13 O13        -4.9004    3.3977   53.0391 O.3     1  ZINC000058174787   -0.3300
     14 C14        -6.0560    4.2667   53.1725 C.3     1  ZINC000058174787    0.0400
     15 H15        -5.7387    5.3069   53.0999 H       1  ZINC000058174787    0.1200
     16 C16        -6.7186    4.0291   54.5309 C.3     1  ZINC000058174787   -0.1700
     17 C17        -7.0414    3.9643   52.0731 C.2     1  ZINC000058174787    0.4000
     18 O18        -7.1067    4.6871   51.1016 O.2     1  ZINC000058174787   -0.4200
     19 C19        -7.9240    2.7923   52.1784 C.ar    1  ZINC000058174787   -0.1600
     20 C20        -7.4096    1.5056   51.9855 C.ar    1  ZINC000058174787   -0.0600
     21 C21        -8.2424    0.4121   52.0861 C.ar    1  ZINC000058174787   -0.1200
     22 C22        -9.5860    0.5847   52.3775 C.ar    1  ZINC000058174787    0.0000
     23 Cl23      -10.6274   -0.7985   52.5030 Cl      1  ZINC000058174787   -0.0500
     24 C24       -10.1024    1.8562   52.5698 C.ar    1  ZINC000058174787   -0.1200
     25 C25        -9.2805    2.9586   52.4775 C.ar    1  ZINC000058174787   -0.0400
     26 C26         1.0580    0.3261   49.3913 C.2     1  ZINC000058174787    0.0700
     27 N27         2.2391   -0.2442   48.9998 N.pl3   1  ZINC000058174787   -0.4500
     28 C28         2.9061   -1.3844   49.6333 C.3     1  ZINC000058174787    0.0600
     29 H29         3.7429   -0.5387   46.3589 H       1  ZINC000058174787    0.0900
     30 H30         4.3297    1.0978   46.7405 H       1  ZINC000058174787    0.1000
     31 H31         4.6924   -0.2560   47.8377 H       1  ZINC000058174787    0.0800
     32 H32        -0.5351    2.1145   50.8580 H       1  ZINC000058174787    0.4200
     33 H33        -1.8368    4.4351   50.7039 H       1  ZINC000058174787    0.0900
     34 H34        -2.8961    3.4168   49.6991 H       1  ZINC000058174787    0.0900
     35 H35        -3.3043    1.9020   51.5573 H       1  ZINC000058174787    0.1200
     36 H36        -2.0943    2.7363   52.5613 H       1  ZINC000058174787    0.1200
     37 H37        -7.0359    2.9888   54.6034 H       1  ZINC000058174787    0.0800
     38 H38        -6.0058    4.2478   55.3261 H       1  ZINC000058174787    0.0800
     39 H39        -7.5861    4.6814   54.6311 H       1  ZINC000058174787    0.0800
     40 H40        -6.3628    1.3697   51.7578 H       1  ZINC000058174787    0.1400
     41 H41        -7.8468   -0.5817   51.9371 H       1  ZINC000058174787    0.1400
     42 H42       -11.1506    1.9832   52.7967 H       1  ZINC000058174787    0.1400
     43 H43        -9.6841    3.9488   52.6280 H       1  ZINC000058174787    0.1500
     44 H44         0.4397    0.0202   50.2223 H       1  ZINC000058174787    0.1900
     45 H45         2.5568   -2.3099   49.1753 H       1  ZINC000058174787    0.0900
     46 H46         3.9839   -1.2961   49.4975 H       1  ZINC000058174787    0.1000
     47 H47         2.6736   -1.3956   50.6981 H       1  ZINC000058174787    0.0900
@<TRIPOS>BOND
     1     1     2    1
     2     1    29    1
     3     1    30    1
     4     1    31    1
     5     2    27    1
     6     2     3    2
     7     3     4    1
     8     4     5    1
     9     4    26    2
    10     5     6    2
    11     5     7    2
    12     5     8   am
    13     8     9    1
    14     8    32    1
    15     9    10    1
    16     9    33    1
    17     9    34    1
    18    10    11    1
    19    10    35    1
    20    10    36    1
    21    11    12    2
    22    11    13    1
    23    13    14    1
    24    14    15    1
    25    14    16    1
    26    14    17    1
    27    16    37    1
    28    16    38    1
    29    16    39    1
    30    17    18    2
    31    17    19    1
    32    19    25   ar
    33    19    20   ar
    34    20    21   ar
    35    20    40    1
    36    21    22   ar
    37    21    41    1
    38    22    23    1
    39    22    24   ar
    40    24    25   ar
    41    24    42    1
    42    25    43    1
    43    26    27    1
    44    26    44    1
    45    27    28    1
    46    28    45    1
    47    28    46    1
    48    28    47    1
@<TRIPOS>SUBSTRUCTURE
     1 ZINC000058174787        1 TEMP              0 ****  ****    0 ROOT


##########                                Name:    ZINC000008416770
##########                DOCK_Rotatable_Bonds:                  13
##########                         Heavy_Atoms:                  30
##########                    Molecular_Weight:             412.442
##########                DOCK_Rotatable_Bonds:                  13
##########                       Formal_Charge:          -0.0199998
##########                     HBond_Acceptors:                   8
##########                        HBond_Donors:                   2
##########                         Heavy_Atoms:                  30
##########                          Grid_Score:          -33.221363
##########                     Grid_vdw_energy:          -30.124290
##########                      Grid_es_energy:           -3.097073
##########           Internal_energy_repulsive:           14.477783

@<TRIPOS>MOLECULE
ZINC000008416770
 54 55 1 0 0
SMALL
USER_CHARGES


@<TRIPOS>ATOM
      1 C1         -1.5250    2.6415   62.5074 C.3     1  ZINC000008416770   -0.1500
      2 C2         -0.3872    1.6832   62.8653 C.3     1  ZINC000008416770    0.0600
      3 O3          0.4581    1.4799   61.7023 O.3     1  ZINC000008416770   -0.3500
      4 C4          0.7811    2.5722   60.9823 C.2     1  ZINC000008416770    0.5100
      5 O5          1.7360    3.2513   61.3039 O.2     1  ZINC000008416770   -0.5100
      6 C6         -0.0245    2.9435   59.8042 C.ar    1  ZINC000008416770   -0.1500
      7 C7         -0.3519    4.2829   59.5731 C.ar    1  ZINC000008416770   -0.0400
      8 C8         -1.1036    4.6258   58.4722 C.ar    1  ZINC000008416770   -0.1400
      9 C9         -1.5374    3.6413   57.5898 C.ar    1  ZINC000008416770    0.1800
     10 N10        -2.2986    3.9923   56.4758 N.am    1  ZINC000008416770   -0.6700
     11 C11        -3.5611    3.5374   56.3518 C.2     1  ZINC000008416770    0.5200
     12 O12        -4.0352    2.8227   57.2094 O.2     1  ZINC000008416770   -0.5100
     13 C13        -4.3839    3.9168   55.1476 C.3     1  ZINC000008416770   -0.1300
     14 C14        -3.6871    3.4234   53.8779 C.3     1  ZINC000008416770   -0.1000
     15 C15        -4.3544    4.0302   52.6706 C.2     1  ZINC000008416770    0.4700
     16 O16        -5.2583    4.8193   52.8127 O.2     1  ZINC000008416770   -0.5100
     17 O17        -3.9447    3.6939   51.4374 O.3     1  ZINC000008416770   -0.3300
     18 C18        -4.1833    2.3258   51.0135 C.3     1  ZINC000008416770    0.0500
     19 C19        -5.6673    2.0798   50.9223 C.2     1  ZINC000008416770    0.5100
     20 O20        -6.2666    2.3569   49.9048 O.2     1  ZINC000008416770   -0.4900
     21 N21        -6.3285    1.5518   51.9712 N.am    1  ZINC000008416770   -0.6700
     22 C22        -7.7064    1.3233   51.8866 C.ar    1  ZINC000008416770    0.1400
     23 C23        -8.5827    2.3933   51.7609 C.ar    1  ZINC000008416770   -0.1400
     24 C24        -9.9422    2.1645   51.6775 C.ar    1  ZINC000008416770   -0.1000
     25 C25       -10.4311    0.8717   51.7196 C.ar    1  ZINC000008416770   -0.1000
     26 C26       -11.9151    0.6257   51.6288 C.3     1  ZINC000008416770   -0.1200
     27 C27        -9.5611   -0.1959   51.8442 C.ar    1  ZINC000008416770   -0.1000
     28 C28        -8.2002    0.0259   51.9223 C.ar    1  ZINC000008416770   -0.1200
     29 C29        -1.2130    2.3072   57.8164 C.ar    1  ZINC000008416770   -0.1600
     30 C30        -0.4576    1.9575   58.9126 C.ar    1  ZINC000008416770   -0.0300
     31 H31        -1.1086    3.5973   62.1894 H       1  ZINC000008416770    0.0700
     32 H32        -2.1174    2.2157   61.6976 H       1  ZINC000008416770    0.0700
     33 H33        -2.1596    2.7940   63.3804 H       1  ZINC000008416770    0.0800
     34 H34         0.2052    2.1089   63.6751 H       1  ZINC000008416770    0.0700
     35 H35        -0.8036    0.7274   63.1833 H       1  ZINC000008416770    0.0700
     36 H36        -0.0158    5.0475   60.2578 H       1  ZINC000008416770    0.1400
     37 H37        -1.3572    5.6602   58.2933 H       1  ZINC000008416770    0.1400
     38 H38        -1.9195    4.5640   55.7899 H       1  ZINC000008416770    0.4200
     39 H39        -5.3701    3.4587   55.2222 H       1  ZINC000008416770    0.1100
     40 H40        -4.4890    5.0010   55.1063 H       1  ZINC000008416770    0.1100
     41 H41        -2.6384    3.7195   53.9005 H       1  ZINC000008416770    0.1200
     42 H42        -3.7568    2.3370   53.8240 H       1  ZINC000008416770    0.1200
     43 H43        -3.7272    2.1632   50.0370 H       1  ZINC000008416770    0.1100
     44 H44        -3.7451    1.6393   51.7380 H       1  ZINC000008416770    0.1100
     45 H45        -5.8493    1.3301   52.7849 H       1  ZINC000008416770    0.4100
     46 H46        -8.2016    3.4033   51.7287 H       1  ZINC000008416770    0.1300
     47 H47       -10.6242    2.9961   51.5798 H       1  ZINC000008416770    0.1300
     48 H48       -12.2003    0.5057   50.5837 H       1  ZINC000008416770    0.0700
     49 H49       -12.1678   -0.2797   52.1808 H       1  ZINC000008416770    0.0700
     50 H50       -12.4507    1.4733   52.0566 H       1  ZINC000008416770    0.0700
     51 H51        -9.9461   -1.2045   51.8768 H       1  ZINC000008416770    0.1300
     52 H52        -7.5212   -0.8085   52.0196 H       1  ZINC000008416770    0.1300
     53 H53        -1.5511    1.5457   57.1293 H       1  ZINC000008416770    0.1400
     54 H54        -0.2062    0.9220   59.0879 H       1  ZINC000008416770    0.1400
@<TRIPOS>BOND
     1     1     2    1
     2     1    31    1
     3     1    32    1
     4     1    33    1
     5     2     3    1
     6     2    34    1
     7     2    35    1
     8     3     4    1
     9     4     5    2
    10     4     6    1
    11     6    30   ar
    12     6     7   ar
    13     7     8   ar
    14     7    36    1
    15     8     9   ar
    16     8    37    1
    17     9    10    1
    18     9    29   ar
    19    10    11   am
    20    10    38    1
    21    11    12    2
    22    11    13    1
    23    13    14    1
    24    13    39    1
    25    13    40    1
    26    14    15    1
    27    14    41    1
    28    14    42    1
    29    15    16    2
    30    15    17    1
    31    17    18    1
    32    18    19    1
    33    18    43    1
    34    18    44    1
    35    19    20    2
    36    19    21   am
    37    21    22    1
    38    21    45    1
    39    22    28   ar
    40    22    23   ar
    41    23    24   ar
    42    23    46    1
    43    24    25   ar
    44    24    47    1
    45    25    26    1
    46    25    27   ar
    47    26    48    1
    48    26    49    1
    49    26    50    1
    50    27    28   ar
    51    27    51    1
    52    28    52    1
    53    29    30   ar
    54    29    53    1
    55    30    54    1
@<TRIPOS>SUBSTRUCTURE
     1 ZINC000008416770        1 TEMP              0 ****  ****    0 ROOT


##########                                Name:    ZINC000451500596
##########                DOCK_Rotatable_Bonds:                   7
##########                         Heavy_Atoms:                  25
##########                    Molecular_Weight:             365.497
##########                DOCK_Rotatable_Bonds:                   7
##########                       Formal_Charge:           0.0400004
##########                     HBond_Acceptors:                   7
##########                        HBond_Donors:                   2
##########                         Heavy_Atoms:                  25
##########                          Grid_Score:          -33.100109
##########                     Grid_vdw_energy:          -32.048866
##########                      Grid_es_energy:           -1.051242
##########           Internal_energy_repulsive:           14.019958

@<TRIPOS>MOLECULE
ZINC000451500596
 52 54 1 0 0
SMALL
USER_CHARGES


@<TRIPOS>ATOM
      1 C1         -8.1279    0.0707   52.3548 C.3     1  ZINC000451500596   -0.6700
      2 S2         -7.4445    1.7506   52.3935 S.o2    1  ZINC000451500596    2.6100
      3 O3         -8.3159    2.6587   51.7338 O.2     1  ZINC000451500596   -0.9500
      4 O4         -6.9170    2.0447   53.6798 O.2     1  ZINC000451500596   -0.9600
      5 N5         -6.1122    1.6774   51.4128 N.am    1  ZINC000451500596   -1.1200
      6 C6         -5.2924    2.8728   51.2006 C.3     1  ZINC000451500596    0.1200
      7 C7         -3.9896    2.7449   51.9927 C.3     1  ZINC000451500596   -0.1000
      8 H8         -3.6534    1.7081   51.9931 H       1  ZINC000451500596    0.0900
      9 C9         -4.2017    3.2321   53.4410 C.3     1  ZINC000451500596   -0.1200
     10 C10        -2.8751    3.9470   53.7993 C.3     1  ZINC000451500596   -0.1300
     11 C11        -2.5005    4.6566   52.4744 C.3     1  ZINC000451500596   -0.1300
     12 C12        -2.9076    3.6496   51.3774 C.3     1  ZINC000451500596    0.1400
     13 H13        -3.3108    4.1800   50.5148 H       1  ZINC000451500596    0.1000
     14 N14        -1.7484    2.8483   50.9767 N.am    1  ZINC000451500596   -0.7200
     15 C15        -1.6704    2.3554   49.7248 C.2     1  ZINC000451500596    0.5300
     16 O16        -2.5604    2.5740   48.9303 O.2     1  ZINC000451500596   -0.5300
     17 C17        -0.4772    1.5326   49.3119 C.3     1  ZINC000451500596   -0.1300
     18 H18        -0.7782    0.5125   49.0734 H       1  ZINC000451500596    0.1000
     19 C19         0.2492    2.1860   48.1069 C.3     1  ZINC000451500596   -0.1200
     20 C20         1.6919    1.6501   48.2830 C.3     1  ZINC000451500596    0.0500
     21 N21         1.9116    1.6308   49.7449 N.3     1  ZINC000451500596   -0.4900
     22 C22         2.7346    0.5642   50.1134 C.ar    1  ZINC000451500596    0.0800
     23 C23         2.3586   -0.7399   49.8173 C.ar    1  ZINC000451500596   -0.0900
     24 C24         3.1750   -1.7921   50.1828 C.ar    1  ZINC000451500596   -0.1100
     25 C25         4.3653   -1.5488   50.8432 C.ar    1  ZINC000451500596   -0.1200
     26 C26         4.7427   -0.2518   51.1396 C.ar    1  ZINC000451500596   -0.1100
     27 C27         3.9338    0.8054   50.7719 C.ar    1  ZINC000451500596   -0.1500
     28 C28         0.5994    1.5394   50.4175 C.3     1  ZINC000451500596    0.0600
     29 H29        -8.3910   -0.1910   51.3299 H       1  ZINC000451500596    0.1300
     30 H30        -7.3845   -0.6328   52.7300 H       1  ZINC000451500596    0.1300
     31 H31        -9.0188    0.0263   52.9813 H       1  ZINC000451500596    0.1300
     32 H32        -5.8747    0.8431   50.9787 H       1  ZINC000451500596    0.4200
     33 H33        -5.0640    2.9733   50.1396 H       1  ZINC000451500596    0.0700
     34 H34        -5.8387    3.7530   51.5396 H       1  ZINC000451500596    0.0900
     35 H35        -5.0368    3.9309   53.4900 H       1  ZINC000451500596    0.0800
     36 H36        -4.3712    2.3863   54.1071 H       1  ZINC000451500596    0.0700
     37 H37        -3.0313    4.6742   54.5962 H       1  ZINC000451500596    0.0700
     38 H38        -2.1099    3.2233   54.0798 H       1  ZINC000451500596    0.0700
     39 H39        -3.0610    5.5853   52.3673 H       1  ZINC000451500596    0.0800
     40 H40        -1.4286    4.8501   52.4353 H       1  ZINC000451500596    0.0700
     41 H41        -1.0372    2.6724   51.6124 H       1  ZINC000451500596    0.4000
     42 H42        -0.1798    1.8495   47.1629 H       1  ZINC000451500596    0.0800
     43 H43         0.2250    3.2734   48.1793 H       1  ZINC000451500596    0.0800
     44 H44         1.7754    0.6434   47.8734 H       1  ZINC000451500596    0.0600
     45 H45         2.4061    2.3174   47.8006 H       1  ZINC000451500596    0.0900
     46 H46         1.4288   -0.9307   49.3021 H       1  ZINC000451500596    0.1300
     47 H47         2.8833   -2.8062   49.9528 H       1  ZINC000451500596    0.1300
     48 H48         5.0015   -2.3735   51.1285 H       1  ZINC000451500596    0.1200
     49 H49         5.6729   -0.0653   51.6555 H       1  ZINC000451500596    0.1200
     50 H50         4.2291    1.8181   51.0034 H       1  ZINC000451500596    0.1200
     51 H51         0.4549    2.4026   51.0672 H       1  ZINC000451500596    0.1000
     52 H52         0.5449    0.6202   51.0006 H       1  ZINC000451500596    0.0700
@<TRIPOS>BOND
     1     1     2    1
     2     1    29    1
     3     1    30    1
     4     1    31    1
     5     2     3    2
     6     2     4    2
     7     2     5   am
     8     5     6    1
     9     5    32    1
    10     6     7    1
    11     6    33    1
    12     6    34    1
    13     7     8    1
    14     7    12    1
    15     7     9    1
    16     9    10    1
    17     9    35    1
    18     9    36    1
    19    10    11    1
    20    10    37    1
    21    10    38    1
    22    11    12    1
    23    11    39    1
    24    11    40    1
    25    12    13    1
    26    12    14    1
    27    14    15   am
    28    14    41    1
    29    15    16    2
    30    15    17    1
    31    17    18    1
    32    17    28    1
    33    17    19    1
    34    19    20    1
    35    19    42    1
    36    19    43    1
    37    20    21    1
    38    20    44    1
    39    20    45    1
    40    21    22    1
    41    21    28    1
    42    22    27   ar
    43    22    23   ar
    44    23    24   ar
    45    23    46    1
    46    24    25   ar
    47    24    47    1
    48    25    26   ar
    49    25    48    1
    50    26    27   ar
    51    26    49    1
    52    27    50    1
    53    28    51    1
    54    28    52    1
@<TRIPOS>SUBSTRUCTURE
     1 ZINC000451500596        1 TEMP              0 ****  ****    0 ROOT


##########                                Name:    ZINC001289410668
##########                DOCK_Rotatable_Bonds:                  11
##########                         Heavy_Atoms:                  26
##########                    Molecular_Weight:             362.515
##########                DOCK_Rotatable_Bonds:                  11
##########                       Formal_Charge:          -0.0400008
##########                     HBond_Acceptors:                   6
##########                        HBond_Donors:                   1
##########                         Heavy_Atoms:                  26
##########                          Grid_Score:          -33.077473
##########                     Grid_vdw_energy:          -32.784245
##########                      Grid_es_energy:           -0.293229
##########           Internal_energy_repulsive:           15.070599

@<TRIPOS>MOLECULE
ZINC001289410668
 60 61 1 0 0
SMALL
USER_CHARGES


@<TRIPOS>ATOM
      1 C1         -1.5072    2.8360   49.2047 C.3     1  ZINC001289410668   -0.1500
      2 C2         -1.5061    2.4677   50.6898 C.3     1  ZINC001289410668   -0.1300
      3 C3         -2.7041    3.1243   51.3787 C.3     1  ZINC001289410668   -0.1200
      4 C4         -4.0005    2.5856   50.7704 C.3     1  ZINC001289410668   -0.1200
      5 C5         -5.1982    3.1752   51.5177 C.3     1  ZINC001289410668   -0.1100
      6 C6         -6.4938    2.7338   50.8340 C.3     1  ZINC001289410668   -0.1400
      7 C7         -7.6063    2.6851   51.8493 C.2     1  ZINC001289410668    0.5100
      8 O8         -8.1623    3.7080   52.1892 O.2     1  ZINC001289410668   -0.5300
      9 N9         -7.9834    1.5049   52.3797 N.am    1  ZINC001289410668   -0.7200
     10 C10        -9.0638    1.4578   53.3681 C.3     1  ZINC001289410668    0.1400
     11 H11        -9.8705    2.1380   53.0947 H       1  ZINC001289410668    0.1100
     12 C12        -8.5309    1.7709   54.7884 C.3     1  ZINC001289410668    0.0800
     13 N13        -9.4861    1.1183   55.7023 N.am    1  ZINC001289410668   -0.6200
     14 C14        -9.7144    1.4710   56.9829 C.2     1  ZINC001289410668    0.5100
     15 O15        -9.1058    2.3978   57.4743 O.2     1  ZINC001289410668   -0.5100
     16 C16       -10.7258    0.7136   57.8041 C.3     1  ZINC001289410668    0.0900
     17 N17       -10.0307   -0.2061   58.7081 N.pl3   1  ZINC001289410668   -0.4500
     18 C18        -8.7509   -0.0735   59.1751 C.2     1  ZINC001289410668   -0.0500
     19 C19        -8.5155   -1.1329   59.9726 C.2     1  ZINC001289410668   -0.0200
     20 N20        -9.6214   -1.8915   59.9920 N.2     1  ZINC001289410668   -0.4800
     21 C21       -10.5350   -1.3400   59.2409 C.2     1  ZINC001289410668    0.2300
     22 C22       -11.9199   -1.8832   59.0004 C.3     1  ZINC001289410668   -0.0100
     23 C23       -11.8428   -3.0666   58.0337 C.3     1  ZINC001289410668   -0.1400
     24 C24       -12.5233   -2.3473   60.3275 C.3     1  ZINC001289410668   -0.1400
     25 C25       -10.1490    0.0193   54.9850 C.3     1  ZINC001289410668    0.1100
     26 C26        -9.5930    0.0100   53.5449 C.3     1  ZINC001289410668   -0.1100
     27 H27        -8.7811   -0.7110   53.4497 H       1  ZINC001289410668    0.0900
     28 C28       -10.7040   -0.2927   52.5376 C.3     1  ZINC001289410668   -0.1400
     29 H29        -0.6537    2.3683   48.7138 H       1  ZINC001289410668    0.0500
     30 H30        -2.4297    2.4834   48.7436 H       1  ZINC001289410668    0.0500
     31 H31        -1.4388    3.9187   49.0988 H       1  ZINC001289410668    0.0500
     32 H32        -1.5745    1.3851   50.7957 H       1  ZINC001289410668    0.0600
     33 H33        -0.5835    2.8205   51.1508 H       1  ZINC001289410668    0.0600
     34 H34        -2.6805    2.8961   52.4443 H       1  ZINC001289410668    0.0600
     35 H35        -2.6577    4.2041   51.2372 H       1  ZINC001289410668    0.0600
     36 H36        -4.0534    2.8682   49.7190 H       1  ZINC001289410668    0.0600
     37 H37        -4.0179    1.4991   50.8558 H       1  ZINC001289410668    0.0600
     38 H38        -5.1929    2.8217   52.5489 H       1  ZINC001289410668    0.0700
     39 H39        -5.1338    4.2632   51.5064 H       1  ZINC001289410668    0.0700
     40 H40        -6.7500    3.4442   50.0480 H       1  ZINC001289410668    0.1000
     41 H41        -6.3558    1.7441   50.3984 H       1  ZINC001289410668    0.1000
     42 H42        -7.5396    0.6867   52.1070 H       1  ZINC001289410668    0.4000
     43 H43        -7.5332    1.3520   54.9202 H       1  ZINC001289410668    0.0800
     44 H44        -8.5171    2.8473   54.9597 H       1  ZINC001289410668    0.0800
     45 H45       -11.3199    1.4169   58.3877 H       1  ZINC001289410668    0.1200
     46 H46       -11.3804    0.1469   57.1420 H       1  ZINC001289410668    0.1200
     47 H47        -8.0621    0.7265   58.9473 H       1  ZINC001289410668    0.1700
     48 H48        -7.5971   -1.3360   60.5034 H       1  ZINC001289410668    0.1700
     49 H49       -12.5467   -1.1024   58.5695 H       1  ZINC001289410668    0.0700
     50 H50       -11.2160   -3.8474   58.4645 H       1  ZINC001289410668    0.0700
     51 H51       -12.8444   -3.4595   57.8597 H       1  ZINC001289410668    0.0600
     52 H52       -11.4129   -2.7359   57.0882 H       1  ZINC001289410668    0.0500
     53 H53       -11.8964   -3.1281   60.7584 H       1  ZINC001289410668    0.0700
     54 H54       -12.5783   -1.5042   61.0163 H       1  ZINC001289410668    0.0600
     55 H55       -13.5250   -2.7402   60.1537 H       1  ZINC001289410668    0.0600
     56 H56        -9.9281   -0.9293   55.4742 H       1  ZINC001289410668    0.0800
     57 H57       -11.2260    0.1863   54.9647 H       1  ZINC001289410668    0.0800
     58 H58       -11.4910    0.4560   52.6287 H       1  ZINC001289410668    0.0600
     59 H59       -10.2950   -0.2688   51.5275 H       1  ZINC001289410668    0.0600
     60 H60       -11.1176   -1.2809   52.7388 H       1  ZINC001289410668    0.0700
@<TRIPOS>BOND
     1     1     2    1
     2     1    29    1
     3     1    30    1
     4     1    31    1
     5     2     3    1
     6     2    32    1
     7     2    33    1
     8     3     4    1
     9     3    34    1
    10     3    35    1
    11     4     5    1
    12     4    36    1
    13     4    37    1
    14     5     6    1
    15     5    38    1
    16     5    39    1
    17     6     7    1
    18     6    40    1
    19     6    41    1
    20     7     8    2
    21     7     9   am
    22     9    10    1
    23     9    42    1
    24    10    11    1
    25    10    26    1
    26    10    12    1
    27    12    13    1
    28    12    43    1
    29    12    44    1
    30    13    14   am
    31    13    25    1
    32    14    15    2
    33    14    16    1
    34    16    17    1
    35    16    45    1
    36    16    46    1
    37    17    21    1
    38    17    18    1
    39    18    19    2
    40    18    47    1
    41    19    20    1
    42    19    48    1
    43    20    21    2
    44    21    22    1
    45    22    23    1
    46    22    24    1
    47    22    49    1
    48    23    50    1
    49    23    51    1
    50    23    52    1
    51    24    53    1
    52    24    54    1
    53    24    55    1
    54    25    26    1
    55    25    56    1
    56    25    57    1
    57    26    27    1
    58    26    28    1
    59    28    58    1
    60    28    59    1
    61    28    60    1
@<TRIPOS>SUBSTRUCTURE
     1 ZINC001289410668        1 TEMP              0 ****  ****    0 ROOT


##########                                Name:    ZINC000672622940
##########                DOCK_Rotatable_Bonds:                   7
##########                         Heavy_Atoms:                  30
##########                    Molecular_Weight:             416.523
##########                DOCK_Rotatable_Bonds:                   7
##########                       Formal_Charge:          -0.0100002
##########                     HBond_Acceptors:                   9
##########                        HBond_Donors:                   1
##########                         Heavy_Atoms:                  30
##########                          Grid_Score:          -33.027920
##########                     Grid_vdw_energy:          -33.108807
##########                      Grid_es_energy:            0.080886
##########           Internal_energy_repulsive:          155.129776

@<TRIPOS>MOLECULE
ZINC000672622940
 62 65 1 0 0
SMALL
USER_CHARGES


@<TRIPOS>ATOM
      1 C1         -7.9112    0.7916   52.5110 C.3     1  ZINC000672622940    0.0800
      2 N2         -6.7656    1.5899   52.0679 N.am    1  ZINC000672622940   -0.6200
      3 C3         -6.0064    1.1863   50.8817 C.3     1  ZINC000672622940    0.0700
      4 C4         -6.4100    2.6957   52.7515 C.2     1  ZINC000672622940    0.5200
      5 O5         -5.4626    3.3575   52.3838 O.2     1  ZINC000672622940   -0.5300
      6 C6         -7.1899    3.1099   53.9727 C.3     1  ZINC000672622940   -0.1000
      7 H7         -6.6521    3.8999   54.4967 H       1  ZINC000672622940    0.1000
      8 C8         -8.5666    3.6251   53.5483 C.3     1  ZINC000672622940   -0.1300
      9 C9         -9.3584    4.0455   54.7881 C.3     1  ZINC000672622940   -0.1100
     10 C10        -9.5285    2.8417   55.7169 C.3     1  ZINC000672622940   -0.1300
     11 C11        -8.1518    2.3265   56.1415 C.3     1  ZINC000672622940    0.1400
     12 H12        -7.6139    3.1165   56.6655 H       1  ZINC000672622940    0.1000
     13 N13        -8.3147    1.1738   57.0309 N.am    1  ZINC000672622940   -0.6900
     14 C14        -8.3610    1.3539   58.3658 C.2     1  ZINC000672622940    0.5100
     15 O15        -8.2693    2.4710   58.8309 O.2     1  ZINC000672622940   -0.5100
     16 C16        -8.5254    0.1779   59.2732 C.2     1  ZINC000672622940    0.5100
     17 O17        -7.6280   -0.6310   59.3869 O.2     1  ZINC000672622940   -0.5200
     18 N18        -9.6705    0.0156   59.9653 N.am    1  ZINC000672622940   -0.5800
     19 C19       -10.7683    0.9831   59.8336 C.3     1  ZINC000672622940    0.0700
     20 C20       -12.0499    0.2278   59.4675 C.3     1  ZINC000672622940   -0.1200
     21 C21       -12.3021   -0.8720   60.5013 C.3     1  ZINC000672622940    0.0000
     22 C22       -13.5803   -1.5951   60.1635 C.2     1  ZINC000672622940    0.2000
     23 N23       -14.6683   -1.6211   60.8837 N.2     1  ZINC000672622940   -0.2800
     24 N24       -15.5616   -2.3323   60.2927 N.2     1  ZINC000672622940   -0.2800
     25 C25       -15.0829   -2.7918   59.1669 C.2     1  ZINC000672622940    0.1500
     26 C26       -15.4392   -3.6354   57.9620 C.3     1  ZINC000672622940   -0.0400
     27 C27       -14.3580   -3.2808   56.9157 C.3     1  ZINC000672622940   -0.1300
     28 C28       -13.1910   -2.8138   57.8127 C.3     1  ZINC000672622940    0.1000
     29 N29       -13.8160   -2.3350   59.0517 N.pl3   1  ZINC000672622940   -0.4900
     30 C30       -11.1365   -1.8637   60.4883 C.3     1  ZINC000672622940   -0.1200
     31 C31        -9.8470   -1.1354   60.8613 C.3     1  ZINC000672622940    0.1100
     32 C32        -7.3600    1.9061   54.9017 C.3     1  ZINC000672622940   -0.1100
     33 H33        -7.5729    0.0282   53.2117 H       1  ZINC000672622940    0.0600
     34 H34        -8.6373    1.4393   53.0022 H       1  ZINC000672622940    0.0800
     35 H35        -8.3759    0.3131   51.6489 H       1  ZINC000672622940    0.0700
     36 H36        -6.4406    1.6516   49.9968 H       1  ZINC000672622940    0.0600
     37 H37        -4.9695    1.5051   50.9882 H       1  ZINC000672622940    0.0800
     38 H38        -6.0443    0.1019   50.7777 H       1  ZINC000672622940    0.0700
     39 H39        -8.4454    4.4827   52.8865 H       1  ZINC000672622940    0.0800
     40 H40        -9.1045    2.8349   53.0242 H       1  ZINC000672622940    0.0700
     41 H41        -8.8205    4.8355   55.3121 H       1  ZINC000672622940    0.0700
     42 H42       -10.3392    4.4125   54.4856 H       1  ZINC000672622940    0.0700
     43 H43       -10.0926    3.1411   56.6003 H       1  ZINC000672622940    0.0700
     44 H44       -10.0664    2.0516   55.1929 H       1  ZINC000672622940    0.0700
     45 H45        -8.3893    0.2810   56.6591 H       1  ZINC000672622940    0.4100
     46 H46       -10.9099    1.5061   60.7794 H       1  ZINC000672622940    0.0700
     47 H47       -10.5304    1.7010   59.0487 H       1  ZINC000672622940    0.1400
     48 H48       -12.8912    0.9207   59.4609 H       1  ZINC000672622940    0.0800
     49 H49       -11.9388   -0.2198   58.4799 H       1  ZINC000672622940    0.0800
     50 H50       -12.3881   -0.4262   61.4922 H       1  ZINC000672622940    0.0900
     51 H51       -15.3946   -4.6955   58.2120 H       1  ZINC000672622940    0.1000
     52 H52       -16.4297   -3.3715   57.5913 H       1  ZINC000672622940    0.1000
     53 H53       -14.0758   -4.1583   56.3339 H       1  ZINC000672622940    0.1100
     54 H54       -14.6956   -2.4747   56.2641 H       1  ZINC000672622940    0.0900
     55 H55       -12.5198   -3.6469   58.0219 H       1  ZINC000672622940    0.1000
     56 H56       -12.6464   -2.0020   57.3305 H       1  ZINC000672622940    0.1000
     57 H57       -11.3277   -2.6595   61.2082 H       1  ZINC000672622940    0.0800
     58 H58       -11.0341   -2.2916   59.4910 H       1  ZINC000672622940    0.0800
     59 H59        -9.0006   -1.8144   60.7571 H       1  ZINC000672622940    0.1000
     60 H60        -9.9108   -0.7833   61.8908 H       1  ZINC000672622940    0.0800
     61 H61        -7.8979    1.1159   54.3776 H       1  ZINC000672622940    0.0800
     62 H62        -6.3793    1.5390   55.2041 H       1  ZINC000672622940    0.0800
@<TRIPOS>BOND
     1     1     2    1
     2     1    33    1
     3     1    34    1
     4     1    35    1
     5     2     3    1
     6     2     4   am
     7     3    36    1
     8     3    37    1
     9     3    38    1
    10     4     5    2
    11     4     6    1
    12     6     7    1
    13     6    32    1
    14     6     8    1
    15     8     9    1
    16     8    39    1
    17     8    40    1
    18     9    10    1
    19     9    41    1
    20     9    42    1
    21    10    11    1
    22    10    43    1
    23    10    44    1
    24    11    12    1
    25    11    13    1
    26    11    32    1
    27    13    14   am
    28    13    45    1
    29    14    15    2
    30    14    16    1
    31    16    17    2
    32    16    18   am
    33    18    31    1
    34    18    19    1
    35    19    20    1
    36    19    46    1
    37    19    47    1
    38    20    21    1
    39    20    48    1
    40    20    49    1
    41    21    22    1
    42    21    30    1
    43    21    50    1
    44    22    29    1
    45    22    23    2
    46    23    24    1
    47    24    25    2
    48    25    29    1
    49    25    26    1
    50    26    27    1
    51    26    51    1
    52    26    52    1
    53    27    28    1
    54    27    53    1
    55    27    54    1
    56    28    29    1
    57    28    55    1
    58    28    56    1
    59    30    31    1
    60    30    57    1
    61    30    58    1
    62    31    59    1
    63    31    60    1
    64    32    61    1
    65    32    62    1
@<TRIPOS>SUBSTRUCTURE
     1 ZINC000672622940        1 TEMP              0 ****  ****    0 ROOT


##########                                Name:    ZINC000484900616
##########                DOCK_Rotatable_Bonds:                  10
##########                         Heavy_Atoms:                  29
##########                    Molecular_Weight:             415.556
##########                DOCK_Rotatable_Bonds:                  10
##########                       Formal_Charge:        -1.49012e-08
##########                     HBond_Acceptors:                   7
##########                        HBond_Donors:                   1
##########                         Heavy_Atoms:                  29
##########                          Grid_Score:          -32.958664
##########                     Grid_vdw_energy:          -31.991638
##########                      Grid_es_energy:           -0.967027
##########           Internal_energy_repulsive:           12.469831

@<TRIPOS>MOLECULE
ZINC000484900616
 58 60 1 0 0
SMALL
USER_CHARGES


@<TRIPOS>ATOM
      1 C1         -2.5184    4.1366   56.6587 C.3     1  ZINC000484900616   -0.1500
      2 C2         -3.8793    3.5555   57.0475 C.3     1  ZINC000484900616    0.0600
      3 O3         -4.6170    3.2058   55.8468 O.3     1  ZINC000484900616   -0.3400
      4 C4         -5.8449    2.6757   56.0156 C.2     1  ZINC000484900616    0.5500
      5 O5         -6.2545    2.4353   57.1344 O.2     1  ZINC000484900616   -0.5000
      6 C6         -6.6893    2.3883   54.8456 C.2     1  ZINC000484900616    0.0200
      7 C7         -6.2951    2.6233   53.5730 C.2     1  ZINC000484900616   -0.2400
      8 S8         -7.5512    2.1569   52.5116 S.3     1  ZINC000484900616    0.2900
      9 C9         -8.5293    1.6756   53.8261 C.2     1  ZINC000484900616    0.0300
     10 C10        -9.9173    1.1026   53.6982 C.3     1  ZINC000484900616    0.1500
     11 H11       -10.6461    1.9018   53.5636 H       1  ZINC000484900616    0.0900
     12 C12        -9.9828    0.1078   52.5126 C.3     1  ZINC000484900616   -0.1200
     13 C13       -11.1804   -0.7894   52.9222 C.3     1  ZINC000484900616   -0.1400
     14 C14       -11.0428   -0.8737   54.4569 C.3     1  ZINC000484900616    0.0500
     15 N15       -10.2528    0.2954   54.8905 N.3     1  ZINC000484900616   -0.5100
     16 C16       -10.9909    1.0920   55.8798 C.3     1  ZINC000484900616    0.0300
     17 C17       -11.4290    0.2027   57.0149 C.2     1  ZINC000484900616    0.5200
     18 O18       -12.5502    0.3034   57.4661 O.2     1  ZINC000484900616   -0.5100
     19 N19       -10.5747   -0.7043   57.5287 N.am    1  ZINC000484900616   -0.7300
     20 C20       -11.0012   -1.5699   58.6311 C.3     1  ZINC000484900616    0.1900
     21 H21       -12.0882   -1.5505   58.7088 H       1  ZINC000484900616    0.1000
     22 C22       -10.5344   -3.0024   58.3644 C.3     1  ZINC000484900616   -0.1600
     23 C23       -10.3965   -1.0763   59.9202 C.ar    1  ZINC000484900616   -0.1000
     24 C24       -11.2117   -0.5826   60.9216 C.ar    1  ZINC000484900616   -0.1100
     25 C25       -10.6570   -0.1299   62.1040 C.ar    1  ZINC000484900616   -0.1100
     26 C26        -9.2873   -0.1712   62.2854 C.ar    1  ZINC000484900616   -0.0800
     27 C27        -8.6825    0.3227   63.5743 C.3     1  ZINC000484900616   -0.0900
     28 C28        -8.9562    1.8205   63.7250 C.3     1  ZINC000484900616   -0.1500
     29 C29        -8.4722   -0.6662   61.2845 C.ar    1  ZINC000484900616   -0.1100
     30 C30        -9.0272   -1.1225   60.1035 C.ar    1  ZINC000484900616   -0.1000
     31 N31        -7.9151    1.8654   54.9401 N.2     1  ZINC000484900616   -0.4300
     32 H32        -1.9563    3.3962   56.0896 H       1  ZINC000484900616    0.0700
     33 H33        -2.6648    5.0286   56.0496 H       1  ZINC000484900616    0.0700
     34 H34        -1.9645    4.3991   57.5602 H       1  ZINC000484900616    0.0800
     35 H35        -3.7328    2.6635   57.6566 H       1  ZINC000484900616    0.0700
     36 H36        -4.4414    4.2958   57.6167 H       1  ZINC000484900616    0.0700
     37 H37        -5.3429    3.0376   53.2763 H       1  ZINC000484900616    0.1900
     38 H38       -10.1871    0.6283   51.5769 H       1  ZINC000484900616    0.0900
     39 H39        -9.0648   -0.4753   52.4409 H       1  ZINC000484900616    0.0800
     40 H40       -12.1251   -0.3213   52.6452 H       1  ZINC000484900616    0.0700
     41 H41       -11.0927   -1.7784   52.4725 H       1  ZINC000484900616    0.0800
     42 H42       -12.0291   -0.8451   54.9199 H       1  ZINC000484900616    0.0600
     43 H43       -10.5277   -1.7938   54.7330 H       1  ZINC000484900616    0.0900
     44 H44       -10.3458    1.8816   56.2649 H       1  ZINC000484900616    0.1100
     45 H45       -11.8670    1.5365   55.4076 H       1  ZINC000484900616    0.0700
     46 H46        -9.6776   -0.7839   57.1687 H       1  ZINC000484900616    0.4000
     47 H47       -10.8516   -3.6464   59.1846 H       1  ZINC000484900616    0.0700
     48 H48       -10.9718   -3.3594   57.4320 H       1  ZINC000484900616    0.0700
     49 H49        -9.4474   -3.0218   58.2867 H       1  ZINC000484900616    0.0600
     50 H50       -12.2819   -0.5503   60.7799 H       1  ZINC000484900616    0.1200
     51 H51       -11.2939    0.2565   62.8861 H       1  ZINC000484900616    0.1200
     52 H52        -9.1262   -0.2139   64.4129 H       1  ZINC000484900616    0.0700
     53 H53        -7.6064    0.1496   63.5605 H       1  ZINC000484900616    0.0700
     54 H54        -8.5125    2.3571   62.8864 H       1  ZINC000484900616    0.0600
     55 H55       -10.0322    1.9937   63.7388 H       1  ZINC000484900616    0.0600
     56 H56        -8.5187    2.1777   64.6572 H       1  ZINC000484900616    0.0600
     57 H57        -7.4021   -0.6988   61.4264 H       1  ZINC000484900616    0.1200
     58 H58        -8.3904   -1.5092   59.3216 H       1  ZINC000484900616    0.1200
@<TRIPOS>BOND
     1     1     2    1
     2     1    32    1
     3     1    33    1
     4     1    34    1
     5     2     3    1
     6     2    35    1
     7     2    36    1
     8     3     4    1
     9     4     5    2
    10     4     6    1
    11     6    31    1
    12     6     7    2
    13     7     8    1
    14     7    37    1
    15     8     9    1
    16     9    10    1
    17     9    31    2
    18    10    11    1
    19    10    15    1
    20    10    12    1
    21    12    13    1
    22    12    38    1
    23    12    39    1
    24    13    14    1
    25    13    40    1
    26    13    41    1
    27    14    15    1
    28    14    42    1
    29    14    43    1
    30    15    16    1
    31    16    17    1
    32    16    44    1
    33    16    45    1
    34    17    18    2
    35    17    19   am
    36    19    20    1
    37    19    46    1
    38    20    21    1
    39    20    22    1
    40    20    23    1
    41    22    47    1
    42    22    48    1
    43    22    49    1
    44    23    30   ar
    45    23    24   ar
    46    24    25   ar
    47    24    50    1
    48    25    26   ar
    49    25    51    1
    50    26    27    1
    51    26    29   ar
    52    27    28    1
    53    27    52    1
    54    27    53    1
    55    28    54    1
    56    28    55    1
    57    28    56    1
    58    29    30   ar
    59    29    57    1
    60    30    58    1
@<TRIPOS>SUBSTRUCTURE
     1 ZINC000484900616        1 TEMP              0 ****  ****    0 ROOT


##########                                Name:     oleObject17.pdb
##########                DOCK_Rotatable_Bonds:                   8
##########                         Heavy_Atoms:                  29
##########                    Molecular_Weight:             435.393
##########                DOCK_Rotatable_Bonds:                   8
##########                       Formal_Charge:         0.000400059
##########                     HBond_Acceptors:                   6
##########                        HBond_Donors:                   0
##########                         Heavy_Atoms:                  29
##########                          Grid_Score:          -32.951385
##########                     Grid_vdw_energy:          -32.364288
##########                      Grid_es_energy:           -0.587098
##########           Internal_energy_repulsive:           23.950117

@<TRIPOS>MOLECULE
oleObject17.pdb
 57 59 1 0 0
SMALL
NO_CHARGES


@<TRIPOS>ATOM
      1 C           2.9375    1.9435   46.4186 C.3     1  UNL         0.0391
      2 C           2.9133    2.3447   44.9422 C.ar    1  UNL        -0.0277
      3 C           3.8118    1.8079   43.9858 C.ar    1  UNL        -0.0463
      4 C           3.7480    2.2519   42.6503 C.ar    1  UNL        -0.0590
      5 C           2.8057    3.2136   42.2580 C.ar    1  UNL        -0.0620
      6 C           1.9055    3.7320   43.1982 C.ar    1  UNL        -0.0619
      7 C           1.9576    3.2942   44.5298 C.ar    1  UNL        -0.0572
      8 C           4.8503    0.7527   44.3503 C.3     1  UNL        -0.0394
      9 N           2.7396    3.0937   47.3266 N.am    1  UNL        -0.3003
     10 C           1.8733    3.0090   48.4164 C.2     1  UNL         0.2175
     11 O           1.4815    4.0271   48.9612 O.2     1  UNL        -0.2772
     12 C           1.1393    1.6570   48.6183 C.3     1  UNL         0.0384
     13 C          -0.1024    1.5077   47.7032 C.3     1  UNL        -0.0289
     14 C          -1.2326    2.4656   48.1273 C.3     1  UNL        -0.0010
     15 N          -1.6301    2.2568   49.5369 N.4     1  UNL        -0.3010
     16 C          -0.5097    2.3107   50.5051 C.3     1  UNL        -0.0010
     17 C           0.6922    1.4245   50.0874 C.3     1  UNL        -0.0289
     18 C          -2.8063    3.0611   49.9400 C.3     1  UNL         0.0222
     19 C          -3.0165    3.1278   51.4705 C.3     1  UNL         0.0661
     20 O          -4.3440    3.6176   51.7247 O.3     1  UNL        -0.3432
     21 C          -5.4424    2.7856   51.8292 C.ar    1  UNL         0.0937
     22 C          -5.4354    1.4717   51.3131 C.ar    1  UNL        -0.0288
     23 C          -6.5692    0.6535   51.4464 C.ar    1  UNL        -0.0408
     24 C          -7.7160    1.1416   52.0920 C.ar    1  UNL         0.0422
     25 C          -7.7325    2.4482   52.6045 C.ar    1  UNL        -0.0221
     26 C          -6.5995    3.2687   52.4733 C.ar    1  UNL         0.0723
     27 CL         -6.6510    4.8941   53.1298 Cl      1  UNL        -0.0814
     28 CL         -9.1274    0.1192   52.2574 Cl      1  UNL        -0.0843
     29 C           3.4989    4.3152   47.0027 C.3     1  UNL         0.0031
     30 H           3.8842    1.4582   46.6808 H       1  UNL         0.0520
     31 H           2.1479    1.2004   46.5864 H       1  UNL         0.0520
     32 H           4.4331    1.8512   41.9087 H       1  UNL         0.0626
     33 H           2.7692    3.5506   41.2258 H       1  UNL         0.0623
     34 H           1.1703    4.4726   42.8970 H       1  UNL         0.0623
     35 H           1.2579    3.7063   45.2509 H       1  UNL         0.0626
     36 H           4.3824   -0.1141   44.8329 H       1  UNL         0.0280
     37 H           5.6061    1.1576   45.0328 H       1  UNL         0.0280
     38 H           5.3786    0.3807   43.4638 H       1  UNL         0.0280
     39 H           1.8507    0.8621   48.3647 H       1  UNL         0.0402
     40 H          -0.4720    0.4758   47.7616 H       1  UNL         0.0288
     41 H           0.1551    1.6826   46.6534 H       1  UNL         0.0288
     42 H          -2.0965    2.3101   47.4683 H       1  UNL         0.0431
     43 H          -0.8847    3.4950   47.9845 H       1  UNL         0.0431
     44 H          -0.8606    1.9841   51.4923 H       1  UNL         0.0431
     45 H          -0.1642    3.3448   50.6138 H       1  UNL         0.0431
     46 H           0.4025    0.3722   50.2046 H       1  UNL         0.0288
     47 H           1.5344    1.5928   50.7707 H       1  UNL         0.0288
     48 H          -3.7107    2.6449   49.4780 H       1  UNL         0.0455
     49 H          -2.6903    4.0843   49.5601 H       1  UNL         0.0455
     50 H          -2.2845    3.8091   51.9192 H       1  UNL         0.0586
     51 H          -2.8909    2.1313   51.9108 H       1  UNL         0.0586
     52 H          -4.5614    1.0746   50.8071 H       1  UNL         0.0651
     53 H          -6.5576   -0.3572   51.0480 H       1  UNL         0.0639
     54 H          -8.6208    2.8249   53.1035 H       1  UNL         0.0655
     55 H           3.6021    4.4209   45.9153 H       1  UNL         0.0433
     56 H           4.4985    4.2677   47.4512 H       1  UNL         0.0433
     57 H           2.9733    5.2001   47.3821 H       1  UNL         0.0433
@<TRIPOS>BOND
     1     1     2    1
     2     1     9    1
     3     1    30    1
     4     1    31    1
     5     2     3   ar
     6     2     7   ar
     7     3     4   ar
     8     3     8    1
     9     4     5   ar
    10     4    32    1
    11     5     6   ar
    12     5    33    1
    13     6     7   ar
    14     6    34    1
    15     7    35    1
    16     8    36    1
    17     8    37    1
    18     8    38    1
    19     9    10   am
    20     9    29    1
    21    10    11    2
    22    10    12    1
    23    12    13    1
    24    12    17    1
    25    12    39    1
    26    13    14    1
    27    13    40    1
    28    13    41    1
    29    14    15    1
    30    14    42    1
    31    14    43    1
    32    15    16    1
    33    15    18    1
    34    16    17    1
    35    16    44    1
    36    16    45    1
    37    17    46    1
    38    17    47    1
    39    18    19    1
    40    18    48    1
    41    18    49    1
    42    19    20    1
    43    19    50    1
    44    19    51    1
    45    20    21    1
    46    21    22   ar
    47    21    26   ar
    48    22    23   ar
    49    22    52    1
    50    23    24   ar
    51    23    53    1
    52    24    25   ar
    53    24    28    1
    54    25    26   ar
    55    25    54    1
    56    26    27    1
    57    29    55    1
    58    29    56    1
    59    29    57    1
@<TRIPOS>SUBSTRUCTURE
     1 UNL         1 TEMP              0 ****  ****    0 ROOT


##########                                Name:    ZINC001105793963
##########                DOCK_Rotatable_Bonds:                   9
##########                         Heavy_Atoms:                  24
##########                    Molecular_Weight:             337.422
##########                DOCK_Rotatable_Bonds:                   9
##########                       Formal_Charge:          -0.0100003
##########                     HBond_Acceptors:                   8
##########                        HBond_Donors:                   2
##########                         Heavy_Atoms:                  24
##########                          Grid_Score:          -32.906658
##########                     Grid_vdw_energy:          -31.200840
##########                      Grid_es_energy:           -1.705820
##########           Internal_energy_repulsive:            8.792717

@<TRIPOS>MOLECULE
ZINC001105793963
 51 52 1 0 0
SMALL
USER_CHARGES


@<TRIPOS>ATOM
      1 C1          1.1066    3.0791   55.9226 C.3     1  ZINC001105793963   -0.1500
      2 C2          0.1169    2.7624   57.0456 C.3     1  ZINC001105793963   -0.0300
      3 C3         -1.2908    2.8555   56.5157 C.2     1  ZINC001105793963    0.1800
      4 N4         -1.7062    3.6173   55.5326 N.2     1  ZINC001105793963   -0.4800
      5 C5         -3.0228    3.3694   55.4141 C.2     1  ZINC001105793963    0.1700
      6 C6         -3.9632    3.9999   54.4194 C.3     1  ZINC001105793963    0.1500
      7 N7         -3.2310    4.3158   53.1856 N.3     1  ZINC001105793963   -0.6900
      8 C8         -3.0259    3.1101   52.3719 C.3     1  ZINC001105793963    0.0700
      9 C9         -2.2995    3.4852   51.0787 C.3     1  ZINC001105793963   -0.1000
     10 H10        -2.6686    4.4385   50.7004 H       1  ZINC001105793963    0.1000
     11 C11        -2.4855    2.3786   50.0182 C.3     1  ZINC001105793963    0.1100
     12 N12        -1.1852    2.3161   49.3111 N.am    1  ZINC001105793963   -0.6200
     13 C13        -0.9689    2.1454   47.9919 C.2     1  ZINC001105793963    0.5300
     14 O14        -1.9080    2.0230   47.2343 O.2     1  ZINC001105793963   -0.5300
     15 C15         0.4399    2.1068   47.4581 C.3     1  ZINC001105793963    0.1300
     16 H16         1.0748    2.7559   48.0610 H       1  ZINC001105793963    0.1100
     17 C17         0.9701    0.6730   47.5213 C.3     1  ZINC001105793963   -0.1600
     18 N18         0.4483    2.5697   46.0682 N.am    1  ZINC001105793963   -0.7200
     19 C19         1.5095    3.2497   45.5907 C.2     1  ZINC001105793963    0.5200
     20 C20         1.5174    3.7275   44.1616 C.3     1  ZINC001105793963   -0.1700
     21 O21         2.4581    3.4771   46.3114 O.2     1  ZINC001105793963   -0.5500
     22 C22        -0.1765    2.4836   50.3832 C.3     1  ZINC001105793963    0.1000
     23 C23        -0.7773    3.5572   51.3200 C.3     1  ZINC001105793963   -0.1000
     24 H24        -0.5473    3.3245   52.3597 H       1  ZINC001105793963    0.0900
     25 C25        -0.2404    4.9426   50.9546 C.3     1  ZINC001105793963   -0.1500
     26 N26        -3.3351    2.4860   56.3144 N.2     1  ZINC001105793963   -0.3700
     27 O27        -2.3530    2.1733   56.9540 O.3     1  ZINC001105793963    0.0800
     28 H28         0.9761    2.3636   55.1108 H       1  ZINC001105793963    0.0600
     29 H29         0.9241    4.0874   55.5512 H       1  ZINC001105793963    0.0600
     30 H30         2.1248    3.0119   56.3059 H       1  ZINC001105793963    0.0800
     31 H31         0.2995    1.7541   57.4171 H       1  ZINC001105793963    0.1100
     32 H32         0.2475    3.4779   57.8575 H       1  ZINC001105793963    0.1000
     33 H33        -4.7726    3.3057   54.1941 H       1  ZINC001105793963    0.1000
     34 H34        -4.3771    4.9161   54.8410 H       1  ZINC001105793963    0.0700
     35 H35        -3.7055    5.0324   52.6570 H       1  ZINC001105793963    0.3500
     36 H36        -2.4256    2.3923   52.9309 H       1  ZINC001105793963    0.0800
     37 H37        -3.9917    2.6661   52.1305 H       1  ZINC001105793963    0.0400
     38 H38        -2.7032    1.4247   50.4986 H       1  ZINC001105793963    0.0700
     39 H39        -3.2826    2.6467   49.3249 H       1  ZINC001105793963    0.0900
     40 H40         1.9891    0.6450   47.1351 H       1  ZINC001105793963    0.0800
     41 H41         0.9638    0.3285   48.5554 H       1  ZINC001105793963    0.0800
     42 H42         0.3351    0.0239   46.9182 H       1  ZINC001105793963    0.0600
     43 H43        -0.3099    2.3868   45.4914 H       1  ZINC001105793963    0.4100
     44 H44         0.5881    3.4321   43.6745 H       1  ZINC001105793963    0.0800
     45 H45         1.6085    4.8135   44.1420 H       1  ZINC001105793963    0.1000
     46 H46         2.3612    3.2825   43.6343 H       1  ZINC001105793963    0.1000
     47 H47        -0.0336    1.5461   50.9205 H       1  ZINC001105793963    0.0800
     48 H48         0.7683    2.8310   49.9652 H       1  ZINC001105793963    0.0900
     49 H49        -0.4887    5.1664   49.9172 H       1  ZINC001105793963    0.0600
     50 H50        -0.6921    5.6907   51.6060 H       1  ZINC001105793963    0.0600
     51 H51         0.8422    4.9574   51.0804 H       1  ZINC001105793963    0.0600
@<TRIPOS>BOND
     1     1     2    1
     2     1    28    1
     3     1    29    1
     4     1    30    1
     5     2     3    1
     6     2    31    1
     7     2    32    1
     8     3    27    1
     9     3     4    2
    10     4     5    1
    11     5     6    1
    12     5    26    2
    13     6     7    1
    14     6    33    1
    15     6    34    1
    16     7     8    1
    17     7    35    1
    18     8     9    1
    19     8    36    1
    20     8    37    1
    21     9    10    1
    22     9    23    1
    23     9    11    1
    24    11    12    1
    25    11    38    1
    26    11    39    1
    27    12    13   am
    28    12    22    1
    29    13    14    2
    30    13    15    1
    31    15    16    1
    32    15    17    1
    33    15    18    1
    34    17    40    1
    35    17    41    1
    36    17    42    1
    37    18    19   am
    38    18    43    1
    39    19    20    1
    40    19    21    2
    41    20    44    1
    42    20    45    1
    43    20    46    1
    44    22    23    1
    45    22    47    1
    46    22    48    1
    47    23    24    1
    48    23    25    1
    49    25    49    1
    50    25    50    1
    51    25    51    1
    52    26    27    1
@<TRIPOS>SUBSTRUCTURE
     1 ZINC001105793963        1 TEMP              0 ****  ****    0 ROOT


##########                                Name:    ZINC000541000201
##########                DOCK_Rotatable_Bonds:                  10
##########                         Heavy_Atoms:                  30
##########                    Molecular_Weight:             420.413
##########                DOCK_Rotatable_Bonds:                  10
##########                       Formal_Charge:               -0.03
##########                     HBond_Acceptors:                   9
##########                        HBond_Donors:                   1
##########                         Heavy_Atoms:                  30
##########                          Grid_Score:          -32.906025
##########                     Grid_vdw_energy:          -31.041576
##########                      Grid_es_energy:           -1.864448
##########           Internal_energy_repulsive:           50.887337

@<TRIPOS>MOLECULE
ZINC000541000201
 52 54 1 0 0
SMALL
USER_CHARGES


@<TRIPOS>ATOM
      1 C1         -1.8102    3.3443   49.6977 C.3     1  ZINC000541000201    0.0400
      2 O2         -2.2422    2.5235   48.5805 O.3     1  ZINC000541000201   -0.3500
      3 C3         -1.3229    2.2328   47.6466 C.2     1  ZINC000541000201    0.4500
      4 O4         -1.6152    1.5275   46.7101 O.2     1  ZINC000541000201   -0.4900
      5 C5          0.0736    2.7862   47.7661 C.3     1  ZINC000541000201    0.2100
      6 H6          0.0562    3.6869   48.3798 H       1  ZINC000541000201    0.1400
      7 N7          0.5850    3.1135   46.4328 N.am    1  ZINC000541000201   -0.7100
      8 C8          1.7190    3.8302   46.3032 C.2     1  ZINC000541000201    0.5800
      9 O9          2.3186    4.2036   47.2928 O.2     1  ZINC000541000201   -0.5300
     10 C10         2.2333    4.1615   44.9598 C.ar    1  ZINC000541000201   -0.2300
     11 C11         1.4381    3.9569   43.8229 C.ar    1  ZINC000541000201    0.0200
     12 C12         1.9631    4.2819   42.5887 C.ar    1  ZINC000541000201   -0.2000
     13 C13         3.2530    4.7976   42.5127 C.ar    1  ZINC000541000201    0.3500
     14 O14         3.7736    5.1186   41.3036 O.3     1  ZINC000541000201   -0.2900
     15 C15         2.9430    4.9011   40.1612 C.3     1  ZINC000541000201    0.0800
     16 C16         1.7057    5.8317   40.2056 C.3     1  ZINC000541000201   -0.1400
     17 C17         1.2907    5.9198   38.7158 C.3     1  ZINC000541000201   -0.1200
     18 C18         2.6303    5.9616   37.9519 C.3     1  ZINC000541000201   -0.1200
     19 C19         3.6809    5.3139   38.8709 C.3     1  ZINC000541000201   -0.1200
     20 N20         3.9791    4.9798   43.6051 N.ar    1  ZINC000541000201   -0.5400
     21 C21         3.5160    4.6885   44.8025 C.ar    1  ZINC000541000201    0.1800
     22 C22         0.9683    1.7578   48.4087 C.ar    1  ZINC000541000201   -0.1300
     23 C23         1.5571    2.0228   49.6314 C.ar    1  ZINC000541000201   -0.0700
     24 C24         2.3777    1.0816   50.2225 C.ar    1  ZINC000541000201   -0.1300
     25 C25         2.6103   -0.1302   49.5886 C.ar    1  ZINC000541000201    0.1200
     26 O26         3.4168   -1.0577   50.1683 O.3     1  ZINC000541000201   -0.3200
     27 C27         4.7898   -0.7035   50.3457 C.3     1  ZINC000541000201    0.4100
     28 F28         5.4523   -1.7308   51.0262 F       1  ZINC000541000201   -0.2000
     29 F29         5.3872   -0.5115   49.0953 F       1  ZINC000541000201   -0.2000
     30 C30         2.0180   -0.3937   48.3621 C.ar    1  ZINC000541000201   -0.1900
     31 C31         1.1944    0.5487   47.7774 C.ar    1  ZINC000541000201   -0.0500
     32 H32        -2.6478    3.5035   50.3769 H       1  ZINC000541000201    0.1000
     33 H33        -1.0028    2.8398   50.2285 H       1  ZINC000541000201    0.0600
     34 H34        -1.4558    4.3059   49.3263 H       1  ZINC000541000201    0.0600
     35 H35         0.1072    2.8146   45.6433 H       1  ZINC000541000201    0.4100
     36 H36         0.4397    3.5545   43.9109 H       1  ZINC000541000201    0.1600
     37 H37         1.3791    4.1372   41.6917 H       1  ZINC000541000201    0.1500
     38 H38         2.6357    3.8567   40.1074 H       1  ZINC000541000201    0.1000
     39 H39         0.9094    5.3873   40.8027 H       1  ZINC000541000201    0.0700
     40 H40         1.9756    6.8152   40.5902 H       1  ZINC000541000201    0.0800
     41 H41         0.7145    5.0406   38.4277 H       1  ZINC000541000201    0.0700
     42 H42         0.7184    6.8292   38.5324 H       1  ZINC000541000201    0.0700
     43 H43         2.5481    5.3973   37.0229 H       1  ZINC000541000201    0.0700
     44 H44         2.9065    6.9943   37.7388 H       1  ZINC000541000201    0.0700
     45 H45         4.4669    6.0321   39.1037 H       1  ZINC000541000201    0.0800
     46 H46         4.1085    4.4353   38.3879 H       1  ZINC000541000201    0.0700
     47 H47         4.1376    4.8511   45.6705 H       1  ZINC000541000201    0.1600
     48 H48         1.3756    2.9662   50.1245 H       1  ZINC000541000201    0.1300
     49 H49         2.8379    1.2893   51.1772 H       1  ZINC000541000201    0.1400
     50 H50         4.8556    0.2174   50.9251 H       1  ZINC000541000201    0.1900
     51 H51         2.1978   -1.3363   47.8664 H       1  ZINC000541000201    0.1400
     52 H52         0.7327    0.3439   46.8228 H       1  ZINC000541000201    0.1400
@<TRIPOS>BOND
     1     1     2    1
     2     1    32    1
     3     1    33    1
     4     1    34    1
     5     2     3    1
     6     3     4    2
     7     3     5    1
     8     5     6    1
     9     5     7    1
    10     5    22    1
    11     7     8   am
    12     7    35    1
    13     8     9    2
    14     8    10    1
    15    10    21   ar
    16    10    11   ar
    17    11    12   ar
    18    11    36    1
    19    12    13   ar
    20    12    37    1
    21    13    14    1
    22    13    20   ar
    23    14    15    1
    24    15    19    1
    25    15    16    1
    26    15    38    1
    27    16    17    1
    28    16    39    1
    29    16    40    1
    30    17    18    1
    31    17    41    1
    32    17    42    1
    33    18    19    1
    34    18    43    1
    35    18    44    1
    36    19    45    1
    37    19    46    1
    38    20    21   ar
    39    21    47    1
    40    22    31   ar
    41    22    23   ar
    42    23    24   ar
    43    23    48    1
    44    24    25   ar
    45    24    49    1
    46    25    26    1
    47    25    30   ar
    48    26    27    1
    49    27    28    1
    50    27    29    1
    51    27    50    1
    52    30    31   ar
    53    30    51    1
    54    31    52    1
@<TRIPOS>SUBSTRUCTURE
     1 ZINC000541000201        1 TEMP              0 ****  ****    0 ROOT


##########                                Name:    ZINC000046390957
##########                DOCK_Rotatable_Bonds:                   9
##########                         Heavy_Atoms:                  29
##########                    Molecular_Weight:             408.521
##########                DOCK_Rotatable_Bonds:                   9
##########                       Formal_Charge:           0.0100005
##########                     HBond_Acceptors:                   6
##########                        HBond_Donors:                   1
##########                         Heavy_Atoms:                  29
##########                          Grid_Score:          -32.857246
##########                     Grid_vdw_energy:          -31.013006
##########                      Grid_es_energy:           -1.844239
##########           Internal_energy_repulsive:           16.020769

@<TRIPOS>MOLECULE
ZINC000046390957
 53 55 1 0 0
SMALL
USER_CHARGES


@<TRIPOS>ATOM
      1 C1         -8.2120    1.8738   57.1996 C.3     1  ZINC000046390957   -0.1100
      2 C2         -9.0363    1.4191   56.0228 C.ar    1  ZINC000046390957   -0.0600
      3 C3        -10.3370    0.9951   56.2125 C.ar    1  ZINC000046390957   -0.1200
      4 C4        -11.0939    0.5772   55.1334 C.ar    1  ZINC000046390957   -0.1100
      5 C5        -10.5518    0.5829   53.8612 C.ar    1  ZINC000046390957   -0.1200
      6 C6         -9.2519    1.0062   53.6648 C.ar    1  ZINC000046390957   -0.0800
      7 C7         -8.6621    1.0125   52.2780 C.3     1  ZINC000046390957   -0.1100
      8 C8         -8.4909    1.4314   54.7458 C.ar    1  ZINC000046390957    0.1300
      9 N9         -7.1737    1.8613   54.5501 N.am    1  ZINC000046390957   -0.6800
     10 C10        -6.9075    3.1750   54.4095 C.2     1  ZINC000046390957    0.5200
     11 O11        -7.8097    3.9846   54.4525 O.2     1  ZINC000046390957   -0.4900
     12 C12        -5.4890    3.6381   54.1987 C.3     1  ZINC000046390957    0.0700
     13 H13        -5.4925    4.6661   53.8365 H       1  ZINC000046390957    0.1100
     14 C14        -4.7271    3.5667   55.5236 C.3     1  ZINC000046390957   -0.1700
     15 O15        -4.8407    2.7826   53.2209 O.3     1  ZINC000046390957   -0.3300
     16 C16        -5.0004    3.1052   51.9279 C.2     1  ZINC000046390957    0.4700
     17 O17        -5.7122    4.0317   51.6198 O.2     1  ZINC000046390957   -0.4800
     18 C18        -4.2920    2.3119   50.8602 C.3     1  ZINC000046390957   -0.0300
     19 C19        -2.8967    2.8509   50.6766 C.2     1  ZINC000046390957    0.0800
     20 C20        -2.2404    3.5018   51.6417 C.2     1  ZINC000046390957   -0.2500
     21 S21        -0.6581    3.9537   51.0119 S.3     1  ZINC000046390957    0.1300
     22 C22        -1.0364    3.2224   49.5133 C.2     1  ZINC000046390957    0.0600
     23 C23        -0.1162    3.1729   48.3210 C.3     1  ZINC000046390957    0.0000
     24 C24         0.6219    1.8589   48.3104 C.ar    1  ZINC000046390957   -0.0900
     25 C25         0.9959    1.2860   47.1093 C.ar    1  ZINC000046390957   -0.0900
     26 C26         1.6728    0.0807   47.0996 C.ar    1  ZINC000046390957   -0.1200
     27 C27         1.9759   -0.5513   48.2910 C.ar    1  ZINC000046390957   -0.1200
     28 C28         1.6027    0.0221   49.4922 C.ar    1  ZINC000046390957   -0.1200
     29 C29         0.9296    1.2295   49.5020 C.ar    1  ZINC000046390957   -0.1100
     30 N30        -2.2217    2.7141   49.5532 N.2     1  ZINC000046390957   -0.4500
     31 H31        -8.4356    2.9180   57.4181 H       1  ZINC000046390957    0.0800
     32 H32        -8.4511    1.2614   58.0691 H       1  ZINC000046390957    0.0700
     33 H33        -7.1530    1.7708   56.9629 H       1  ZINC000046390957    0.0600
     34 H34       -10.7632    0.9895   57.2048 H       1  ZINC000046390957    0.1300
     35 H35       -12.1105    0.2454   55.2844 H       1  ZINC000046390957    0.1300
     36 H36       -11.1454    0.2556   53.0204 H       1  ZINC000046390957    0.1300
     37 H37        -8.8540    1.9760   51.8059 H       1  ZINC000046390957    0.0700
     38 H38        -7.5866    0.8459   52.3398 H       1  ZINC000046390957    0.0600
     39 H39        -9.1190    0.2200   51.6852 H       1  ZINC000046390957    0.0700
     40 H40        -6.4523    1.2139   54.5157 H       1  ZINC000046390957    0.4100
     41 H41        -5.2138    4.2090   56.2577 H       1  ZINC000046390957    0.0800
     42 H42        -4.7236    2.5387   55.8859 H       1  ZINC000046390957    0.0800
     43 H43        -3.7010    3.9018   55.3712 H       1  ZINC000046390957    0.0800
     44 H44        -4.2407    1.2650   51.1592 H       1  ZINC000046390957    0.1200
     45 H45        -4.8401    2.3953   49.9218 H       1  ZINC000046390957    0.1300
     46 H46        -2.6139    3.7136   52.6327 H       1  ZINC000046390957    0.1800
     47 H47        -0.7012    3.2684   47.4062 H       1  ZINC000046390957    0.1000
     48 H48         0.6007    3.9918   48.3810 H       1  ZINC000046390957    0.1000
     49 H49         0.7590    1.7798   46.1785 H       1  ZINC000046390957    0.1200
     50 H50         1.9644   -0.3673   46.1612 H       1  ZINC000046390957    0.1200
     51 H51         2.5042   -1.4934   48.2833 H       1  ZINC000046390957    0.1200
     52 H52         1.8393   -0.4719   50.4229 H       1  ZINC000046390957    0.1200
     53 H53         0.6379    1.6774   50.4404 H       1  ZINC000046390957    0.1200
@<TRIPOS>BOND
     1     1     2    1
     2     1    31    1
     3     1    32    1
     4     1    33    1
     5     2     8   ar
     6     2     3   ar
     7     3     4   ar
     8     3    34    1
     9     4     5   ar
    10     4    35    1
    11     5     6   ar
    12     5    36    1
    13     6     7    1
    14     6     8   ar
    15     7    37    1
    16     7    38    1
    17     7    39    1
    18     8     9    1
    19     9    10   am
    20     9    40    1
    21    10    11    2
    22    10    12    1
    23    12    13    1
    24    12    14    1
    25    12    15    1
    26    14    41    1
    27    14    42    1
    28    14    43    1
    29    15    16    1
    30    16    17    2
    31    16    18    1
    32    18    19    1
    33    18    44    1
    34    18    45    1
    35    19    30    1
    36    19    20    2
    37    20    21    1
    38    20    46    1
    39    21    22    1
    40    22    23    1
    41    22    30    2
    42    23    24    1
    43    23    47    1
    44    23    48    1
    45    24    29   ar
    46    24    25   ar
    47    25    26   ar
    48    25    49    1
    49    26    27   ar
    50    26    50    1
    51    27    28   ar
    52    27    51    1
    53    28    29   ar
    54    28    52    1
    55    29    53    1
@<TRIPOS>SUBSTRUCTURE
     1 ZINC000046390957        1 TEMP              0 ****  ****    0 ROOT


##########                                Name:     oleObject14.pdb
##########                DOCK_Rotatable_Bonds:                   9
##########                         Heavy_Atoms:                  33
##########                    Molecular_Weight:             484.424
##########                DOCK_Rotatable_Bonds:                   9
##########                       Formal_Charge:         0.000299782
##########                     HBond_Acceptors:                   7
##########                        HBond_Donors:                   1
##########                         Heavy_Atoms:                  33
##########                          Grid_Score:          -32.792301
##########                     Grid_vdw_energy:          -32.418751
##########                      Grid_es_energy:           -0.373550
##########           Internal_energy_repulsive:            8.235297

@<TRIPOS>MOLECULE
oleObject14.pdb
 60 63 1 0 0
SMALL
NO_CHARGES


@<TRIPOS>ATOM
      1 C         -14.1814   -2.6263   59.9076 C.ar    1  UNL         0.0422
      2 C         -12.9210   -2.0619   59.6557 C.ar    1  UNL        -0.0408
      3 C         -12.4407   -1.9718   58.3385 C.ar    1  UNL        -0.0288
      4 C         -13.2218   -2.4478   57.2637 C.ar    1  UNL         0.0937
      5 C         -14.4867   -3.0128   57.5259 C.ar    1  UNL         0.0723
      6 C         -14.9643   -3.1017   58.8441 C.ar    1  UNL        -0.0221
      7 CL        -15.4901   -3.6163   56.2202 Cl      1  UNL        -0.0814
      8 O         -12.7863   -2.3778   55.9543 O.3     1  UNL        -0.3432
      9 C         -11.7966   -1.4408   55.4936 C.3     1  UNL         0.0661
     10 C         -11.8947   -1.3707   53.9556 C.3     1  UNL         0.0222
     11 N         -11.0471   -0.3149   53.3584 N.4     1  UNL        -0.3010
     12 C         -11.2949    1.0425   53.8982 C.3     1  UNL        -0.0010
     13 C         -10.4647    2.1164   53.1602 C.3     1  UNL        -0.0289
     14 C          -8.9504    1.7966   53.1400 C.3     1  UNL         0.0382
     15 C          -8.7211    0.3406   52.6619 C.3     1  UNL        -0.0289
     16 C          -9.6172   -0.6915   53.3861 C.3     1  UNL        -0.0010
     17 C          -8.2876    2.0771   54.5114 C.2     1  UNL         0.2156
     18 O          -8.8167    1.7550   55.5596 O.2     1  UNL        -0.2774
     19 N          -7.0331    2.6709   54.5640 N.am    1  UNL        -0.3025
     20 C          -6.2485    3.0134   55.7651 C.3     1  UNL         0.0900
     21 C          -4.7407    2.9654   55.5250 C.ar    1  UNL        -0.0217
     22 C          -4.2030    3.1221   54.2315 C.ar    1  UNL        -0.0568
     23 C          -2.8148    3.0641   54.0269 C.ar    1  UNL        -0.0619
     24 C          -1.9523    2.8525   55.1140 C.ar    1  UNL        -0.0622
     25 C          -2.4795    2.7017   56.4062 C.ar    1  UNL        -0.0619
     26 C          -3.8677    2.7598   56.6103 C.ar    1  UNL        -0.0568
     27 C          -6.6604    4.3648   56.3413 C.ar    1  UNL         0.0652
     28 C          -7.1472    5.4033   55.5206 C.ar    1  UNL        -0.0383
     29 C          -7.5019    6.6278   56.1090 C.ar    1  UNL        -0.0588
     30 C          -7.3565    6.7720   57.4975 C.ar    1  UNL        -0.0438
     31 C          -6.8619    5.6865   58.2406 C.ar    1  UNL         0.0272
     32 N          -6.5205    4.5100   57.6772 N.ar    1  UNL        -0.2590
     33 CL        -14.7770   -2.7371   61.5500 Cl      1  UNL        -0.0843
     34 H         -12.3158   -1.6939   60.4794 H       1  UNL         0.0639
     35 H         -11.4638   -1.5314   58.1670 H       1  UNL         0.0652
     36 H         -15.9396   -3.5382   59.0401 H       1  UNL         0.0655
     37 H         -10.7964   -1.7746   55.7948 H       1  UNL         0.0586
     38 H         -11.9885   -0.4465   55.9170 H       1  UNL         0.0586
     39 H         -12.9444   -1.1781   53.6980 H       1  UNL         0.0455
     40 H         -11.6264   -2.3484   53.5343 H       1  UNL         0.0455
     41 H         -11.0489    1.0659   54.9679 H       1  UNL         0.0431
     42 H         -12.3528    1.3105   53.7961 H       1  UNL         0.0431
     43 H         -10.6404    3.0966   53.6185 H       1  UNL         0.0288
     44 H         -10.8258    2.1855   52.1259 H       1  UNL         0.0288
     45 H          -8.4911    2.4381   52.3832 H       1  UNL         0.0402
     46 H          -7.6650    0.0671   52.7823 H       1  UNL         0.0288
     47 H          -8.9371    0.2869   51.5869 H       1  UNL         0.0288
     48 H          -9.2843   -0.7964   54.4264 H       1  UNL         0.0431
     49 H          -9.4812   -1.6673   52.9019 H       1  UNL         0.0431
     50 H          -6.5721    2.7953   53.6717 H       1  UNL         0.1504
     51 H          -6.4956    2.2635   56.5274 H       1  UNL         0.0624
     52 H          -4.8595    3.2798   53.3808 H       1  UNL         0.0626
     53 H          -2.4084    3.1818   53.0265 H       1  UNL         0.0623
     54 H          -0.8784    2.8080   54.9559 H       1  UNL         0.0623
     55 H          -1.8131    2.5414   57.2490 H       1  UNL         0.0623
     56 H          -4.2657    2.6439   57.6148 H       1  UNL         0.0626
     57 H          -7.2484    5.2650   54.4485 H       1  UNL         0.0643
     58 H          -7.8803    7.4457   55.5027 H       1  UNL         0.0624
     59 H          -7.6203    7.7041   57.9886 H       1  UNL         0.0639
     60 H          -6.7346    5.7612   59.3199 H       1  UNL         0.0840
@<TRIPOS>BOND
     1     1     2   ar
     2     1     6   ar
     3     1    33    1
     4     2     3   ar
     5     2    34    1
     6     3     4   ar
     7     3    35    1
     8     4     5   ar
     9     4     8    1
    10     5     6   ar
    11     5     7    1
    12     6    36    1
    13     8     9    1
    14     9    10    1
    15     9    37    1
    16     9    38    1
    17    10    11    1
    18    10    39    1
    19    10    40    1
    20    11    12    1
    21    11    16    1
    22    12    13    1
    23    12    41    1
    24    12    42    1
    25    13    14    1
    26    13    43    1
    27    13    44    1
    28    14    15    1
    29    14    17    1
    30    14    45    1
    31    15    16    1
    32    15    46    1
    33    15    47    1
    34    16    48    1
    35    16    49    1
    36    17    18    2
    37    17    19   am
    38    19    20    1
    39    19    50    1
    40    20    21    1
    41    20    27    1
    42    20    51    1
    43    21    22   ar
    44    21    26   ar
    45    22    23   ar
    46    22    52    1
    47    23    24   ar
    48    23    53    1
    49    24    25   ar
    50    24    54    1
    51    25    26   ar
    52    25    55    1
    53    26    56    1
    54    27    28   ar
    55    27    32   ar
    56    28    29   ar
    57    28    57    1
    58    29    30   ar
    59    29    58    1
    60    30    31   ar
    61    30    59    1
    62    31    32   ar
    63    31    60    1
@<TRIPOS>SUBSTRUCTURE
     1 UNL         1 TEMP              0 ****  ****    0 ROOT


##########                                Name:    ZINC000464139057
##########                DOCK_Rotatable_Bonds:                   9
##########                         Heavy_Atoms:                  30
##########                    Molecular_Weight:              413.56
##########                DOCK_Rotatable_Bonds:                   9
##########                       Formal_Charge:         2.38419e-07
##########                     HBond_Acceptors:                   6
##########                        HBond_Donors:                   2
##########                         Heavy_Atoms:                  30
##########                          Grid_Score:          -32.754745
##########                     Grid_vdw_energy:          -31.200788
##########                      Grid_es_energy:           -1.553959
##########           Internal_energy_repulsive:           15.772268

@<TRIPOS>MOLECULE
ZINC000464139057
 65 67 1 0 0
SMALL
USER_CHARGES


@<TRIPOS>ATOM
      1 C1         -9.4386   -1.3764   59.9136 C.3     1  ZINC000464139057   -0.1800
      2 C2         -8.3378   -0.3417   60.1548 C.3     1  ZINC000464139057    0.0700
      3 H3         -7.3624   -0.8175   60.0535 H       1  ZINC000464139057    0.1200
      4 C4         -8.4647    0.7898   59.1282 C.3     1  ZINC000464139057    0.0800
      5 N5         -9.7045    1.5320   59.4065 N.am    1  ZINC000464139057   -0.6100
      6 C6        -10.5964    1.7846   58.4281 C.2     1  ZINC000464139057    0.5600
      7 O7        -11.6147    2.3993   58.6778 O.2     1  ZINC000464139057   -0.5300
      8 C8        -10.3359    1.3138   57.0509 C.ar    1  ZINC000464139057   -0.1200
      9 C9         -9.4941    2.0420   56.2087 C.ar    1  ZINC000464139057   -0.0900
     10 C10        -9.2549    1.5970   54.9250 C.ar    1  ZINC000464139057   -0.1000
     11 C11        -9.8478    0.4320   54.4717 C.ar    1  ZINC000464139057   -0.0900
     12 C12        -9.5823   -0.0477   53.0680 C.3     1  ZINC000464139057    0.1800
     13 N13        -8.1498    0.0557   52.7793 N.am    1  ZINC000464139057   -0.7400
     14 C14        -7.6870    1.0674   52.0186 C.2     1  ZINC000464139057    0.7000
     15 O15        -8.4582    1.8952   51.5732 O.2     1  ZINC000464139057   -0.5900
     16 N16        -6.3693    1.1617   51.7517 N.am    1  ZINC000464139057   -0.7500
     17 C17        -5.8665    2.2605   50.9234 C.3     1  ZINC000464139057    0.1400
     18 C18        -4.3412    2.3208   51.0273 C.3     1  ZINC000464139057   -0.0900
     19 C19        -3.9485    3.3357   52.0698 C.2     1  ZINC000464139057   -0.1200
     20 C20        -4.5470    3.3440   53.2184 C.2     1  ZINC000464139057   -0.1500
     21 C21        -4.1623    4.3580   54.2744 C.3     1  ZINC000464139057   -0.0900
     22 C22        -2.7881    3.9833   54.8338 C.3     1  ZINC000464139057   -0.1100
     23 C23        -1.6802    4.5654   53.9739 C.3     1  ZINC000464139057   -0.1200
     24 C24        -1.6129    3.9665   52.5802 C.3     1  ZINC000464139057   -0.1100
     25 C25        -2.8522    4.3359   51.7712 C.3     1  ZINC000464139057   -0.0800
     26 C26       -10.6830   -0.2947   55.3016 C.ar    1  ZINC000464139057   -0.1000
     27 C27       -10.9262    0.1363   56.5893 C.ar    1  ZINC000464139057   -0.0700
     28 C28        -9.9419    1.9900   60.7847 C.3     1  ZINC000464139057    0.0700
     29 C29        -9.7430    0.8001   61.7305 C.3     1  ZINC000464139057    0.0700
     30 H30       -10.5324    0.0671   61.5645 H       1  ZINC000464139057    0.0700
     31 C31        -9.7935    1.2859   63.1805 C.3     1  ZINC000464139057   -0.1500
     32 O32        -8.4709    0.1990   61.4715 O.3     1  ZINC000464139057   -0.3700
     33 H33       -10.4138   -0.9000   60.0151 H       1  ZINC000464139057    0.0600
     34 H34        -9.3377   -1.7870   58.9090 H       1  ZINC000464139057    0.0700
     35 H35        -9.3489   -2.1797   60.6451 H       1  ZINC000464139057    0.0700
     36 H36        -7.6090    1.4596   59.2125 H       1  ZINC000464139057    0.0800
     37 H37        -8.5058    0.3704   58.1230 H       1  ZINC000464139057    0.1000
     38 H38        -9.0313    2.9519   56.5612 H       1  ZINC000464139057    0.1300
     39 H39        -8.6037    2.1595   54.2723 H       1  ZINC000464139057    0.1300
     40 H40        -9.8979   -1.0867   52.9733 H       1  ZINC000464139057    0.0800
     41 H41       -10.1405    0.5672   52.3621 H       1  ZINC000464139057    0.0800
     42 H42        -7.5343   -0.6040   53.1356 H       1  ZINC000464139057    0.4000
     43 H43        -5.7539    0.5020   52.1080 H       1  ZINC000464139057    0.4000
     44 H44        -6.1535    2.0936   49.8852 H       1  ZINC000464139057    0.0700
     45 H45        -6.2918    3.2018   51.2712 H       1  ZINC000464139057    0.0700
     46 H46        -3.9574    1.3409   51.3115 H       1  ZINC000464139057    0.0700
     47 H47        -3.9224    2.6095   50.0633 H       1  ZINC000464139057    0.0800
     48 H48        -5.3252    2.6237   53.4237 H       1  ZINC000464139057    0.1100
     49 H49        -4.1173    5.3516   53.8284 H       1  ZINC000464139057    0.0700
     50 H50        -4.8994    4.3477   55.0773 H       1  ZINC000464139057    0.0700
     51 H51        -2.6959    4.3707   55.8485 H       1  ZINC000464139057    0.0600
     52 H52        -2.6931    2.8977   54.8550 H       1  ZINC000464139057    0.0600
     53 H53        -1.8368    5.6404   53.8843 H       1  ZINC000464139057    0.0600
     54 H54        -0.7260    4.3956   54.4728 H       1  ZINC000464139057    0.0600
     55 H55        -0.7258    4.3425   52.0705 H       1  ZINC000464139057    0.0600
     56 H56        -1.5478    2.8812   52.6587 H       1  ZINC000464139057    0.0600
     57 H57        -2.6154    4.3116   50.7075 H       1  ZINC000464139057    0.0700
     58 H58        -3.1877    5.3345   52.0511 H       1  ZINC000464139057    0.0700
     59 H59       -11.1424   -1.2035   54.9417 H       1  ZINC000464139057    0.1300
     60 H60       -11.5781   -0.4320   57.2362 H       1  ZINC000464139057    0.1300
     61 H61        -9.2348    2.7807   61.0356 H       1  ZINC000464139057    0.0800
     62 H62       -10.9611    2.3654   60.8763 H       1  ZINC000464139057    0.1000
     63 H63       -10.7618    1.7468   63.3757 H       1  ZINC000464139057    0.0800
     64 H64        -9.6521    0.4395   63.8524 H       1  ZINC000464139057    0.0700
     65 H65        -9.0029    2.0176   63.3464 H       1  ZINC000464139057    0.0700
@<TRIPOS>BOND
     1     1     2    1
     2     1    33    1
     3     1    34    1
     4     1    35    1
     5     2     3    1
     6     2    32    1
     7     2     4    1
     8     4     5    1
     9     4    36    1
    10     4    37    1
    11     5     6   am
    12     5    28    1
    13     6     7    2
    14     6     8    1
    15     8    27   ar
    16     8     9   ar
    17     9    10   ar
    18     9    38    1
    19    10    11   ar
    20    10    39    1
    21    11    12    1
    22    11    26   ar
    23    12    13    1
    24    12    40    1
    25    12    41    1
    26    13    14   am
    27    13    42    1
    28    14    15    2
    29    14    16   am
    30    16    17    1
    31    16    43    1
    32    17    18    1
    33    17    44    1
    34    17    45    1
    35    18    19    1
    36    18    46    1
    37    18    47    1
    38    19    25    1
    39    19    20    2
    40    20    21    1
    41    20    48    1
    42    21    22    1
    43    21    49    1
    44    21    50    1
    45    22    23    1
    46    22    51    1
    47    22    52    1
    48    23    24    1
    49    23    53    1
    50    23    54    1
    51    24    25    1
    52    24    55    1
    53    24    56    1
    54    25    57    1
    55    25    58    1
    56    26    27   ar
    57    26    59    1
    58    27    60    1
    59    28    29    1
    60    28    61    1
    61    28    62    1
    62    29    30    1
    63    29    31    1
    64    29    32    1
    65    31    63    1
    66    31    64    1
    67    31    65    1
@<TRIPOS>SUBSTRUCTURE
     1 ZINC000464139057        1 TEMP              0 ****  ****    0 ROOT


##########                                Name:    ZINC000642096826
##########                DOCK_Rotatable_Bonds:                  12
##########                         Heavy_Atoms:                  25
##########                    Molecular_Weight:             345.485
##########                DOCK_Rotatable_Bonds:                  12
##########                       Formal_Charge:          0.00999919
##########                     HBond_Acceptors:                   5
##########                        HBond_Donors:                   1
##########                         Heavy_Atoms:                  25
##########                          Grid_Score:          -32.752193
##########                     Grid_vdw_energy:          -33.271255
##########                      Grid_es_energy:            0.519064
##########           Internal_energy_repulsive:           19.052773

@<TRIPOS>MOLECULE
ZINC000642096826
 56 57 1 0 0
SMALL
USER_CHARGES


@<TRIPOS>ATOM
      1 C1         -0.6428    1.7361   46.9165 C.3     1  ZINC000642096826   -0.1500
      2 C2         -1.2577    2.5993   48.0201 C.3     1  ZINC000642096826   -0.1400
      3 C3         -0.5851    2.2750   49.3555 C.3     1  ZINC000642096826    0.1200
      4 N4         -1.1639    3.1118   50.4096 N.am    1  ZINC000642096826   -0.6200
      5 C5         -0.5567    4.4048   50.7346 C.3     1  ZINC000642096826    0.1100
      6 C6          0.4020    4.2359   51.9150 C.3     1  ZINC000642096826   -0.1400
      7 C7          1.4602    3.1873   51.5666 C.3     1  ZINC000642096826   -0.1500
      8 C8         -2.2550    2.6921   51.0803 C.2     1  ZINC000642096826    0.5200
      9 O9         -2.7567    1.6210   50.8123 O.2     1  ZINC000642096826   -0.5200
     10 C10        -2.8514    3.5537   52.1634 C.3     1  ZINC000642096826    0.0400
     11 N11        -4.0898    2.9353   52.6548 N.3     1  ZINC000642096826   -0.5200
     12 C12        -4.2746    3.1944   54.0890 C.3     1  ZINC000642096826    0.0100
     13 C13        -5.2511    3.3969   51.8826 C.3     1  ZINC000642096826    0.0900
     14 C14        -6.4004    2.4433   52.0854 C.ar    1  ZINC000642096826   -0.0500
     15 C15        -6.3712    1.1936   51.4924 C.ar    1  ZINC000642096826   -0.1000
     16 C16        -7.4203    0.3161   51.6735 C.ar    1  ZINC000642096826   -0.0600
     17 C17        -8.5124    0.6914   52.4576 C.ar    1  ZINC000642096826   -0.1400
     18 C18        -9.6398   -0.2441   52.6565 C.2     1  ZINC000642096826    0.5600
     19 O19        -9.9664   -1.0010   51.7632 O.2     1  ZINC000642096826   -0.5300
     20 N20       -10.3056   -0.2576   53.8282 N.am    1  ZINC000642096826   -0.7000
     21 C21       -11.4239   -1.1834   54.0247 C.3     1  ZINC000642096826    0.0800
     22 C22       -11.4903   -1.9393   55.3534 C.3     1  ZINC000642096826   -0.1900
     23 C23       -12.4782   -0.8064   55.0675 C.3     1  ZINC000642096826   -0.1900
     24 C24        -8.5353    1.9534   53.0534 C.ar    1  ZINC000642096826   -0.0900
     25 C25        -7.4773    2.8193   52.8684 C.ar    1  ZINC000642096826   -0.1200
     26 H26         0.4249    1.9437   46.8454 H       1  ZINC000642096826    0.0600
     27 H27        -0.7933    0.6828   47.1528 H       1  ZINC000642096826    0.0600
     28 H28        -1.1220    1.9671   45.9651 H       1  ZINC000642096826    0.0600
     29 H29        -1.1073    3.6526   47.7838 H       1  ZINC000642096826    0.0600
     30 H30        -2.3255    2.3917   48.0912 H       1  ZINC000642096826    0.0600
     31 H31        -0.7447    1.2242   49.5970 H       1  ZINC000642096826    0.0800
     32 H32         0.4843    2.4724   49.2811 H       1  ZINC000642096826    0.0800
     33 H33        -0.0064    4.7754   49.8697 H       1  ZINC000642096826    0.0800
     34 H34        -1.3382    5.1167   51.0002 H       1  ZINC000642096826    0.0800
     35 H35         0.8894    5.1876   52.1262 H       1  ZINC000642096826    0.0700
     36 H36        -0.1564    3.9109   52.7929 H       1  ZINC000642096826    0.0700
     37 H37         2.1430    3.0669   52.4076 H       1  ZINC000642096826    0.0600
     38 H38         0.9726    2.2354   51.3554 H       1  ZINC000642096826    0.0600
     39 H39         2.0185    3.5122   50.6887 H       1  ZINC000642096826    0.0600
     40 H40        -2.1414    3.6478   52.9850 H       1  ZINC000642096826    0.0600
     41 H41        -3.0737    4.5418   51.7604 H       1  ZINC000642096826    0.1000
     42 H42        -4.3291    4.2694   54.2599 H       1  ZINC000642096826    0.0200
     43 H43        -5.1987    2.7254   54.4268 H       1  ZINC000642096826    0.0700
     44 H44        -3.4330    2.7803   54.6444 H       1  ZINC000642096826    0.0900
     45 H45        -5.5404    4.3917   52.2212 H       1  ZINC000642096826    0.0500
     46 H46        -4.9923    3.4341   50.8245 H       1  ZINC000642096826    0.0900
     47 H47        -5.5256    0.9045   50.8859 H       1  ZINC000642096826    0.1300
     48 H48        -7.3967   -0.6588   51.2095 H       1  ZINC000642096826    0.1400
     49 H49       -10.0442    0.3456   54.5415 H       1  ZINC000642096826    0.4000
     50 H50       -11.7646   -1.7055   53.1307 H       1  ZINC000642096826    0.1400
     51 H51       -11.8744   -2.9591   55.3335 H       1  ZINC000642096826    0.1000
     52 H52       -10.7018   -1.7478   56.0812 H       1  ZINC000642096826    0.1000
     53 H53       -12.3396    0.1303   55.6075 H       1  ZINC000642096826    0.1000
     54 H54       -13.5124   -1.0810   54.8598 H       1  ZINC000642096826    0.1100
     55 H55        -9.3775    2.2498   53.6609 H       1  ZINC000642096826    0.1200
     56 H56        -7.4936    3.7960   53.3291 H       1  ZINC000642096826    0.1300
@<TRIPOS>BOND
     1     1     2    1
     2     1    26    1
     3     1    27    1
     4     1    28    1
     5     2     3    1
     6     2    29    1
     7     2    30    1
     8     3     4    1
     9     3    31    1
    10     3    32    1
    11     4     5    1
    12     4     8   am
    13     5     6    1
    14     5    33    1
    15     5    34    1
    16     6     7    1
    17     6    35    1
    18     6    36    1
    19     7    37    1
    20     7    38    1
    21     7    39    1
    22     8     9    2
    23     8    10    1
    24    10    11    1
    25    10    40    1
    26    10    41    1
    27    11    12    1
    28    11    13    1
    29    12    42    1
    30    12    43    1
    31    12    44    1
    32    13    14    1
    33    13    45    1
    34    13    46    1
    35    14    25   ar
    36    14    15   ar
    37    15    16   ar
    38    15    47    1
    39    16    17   ar
    40    16    48    1
    41    17    18    1
    42    17    24   ar
    43    18    19    2
    44    18    20   am
    45    20    21    1
    46    20    49    1
    47    21    23    1
    48    21    22    1
    49    21    50    1
    50    22    23    1
    51    22    51    1
    52    22    52    1
    53    23    53    1
    54    23    54    1
    55    24    25   ar
    56    24    55    1
    57    25    56    1
@<TRIPOS>SUBSTRUCTURE
     1 ZINC000642096826        1 TEMP              0 ****  ****    0 ROOT


##########                                Name:    ZINC000051488227
##########                DOCK_Rotatable_Bonds:                   8
##########                         Heavy_Atoms:                  30
##########                    Molecular_Weight:             403.478
##########                DOCK_Rotatable_Bonds:                   8
##########                       Formal_Charge:           0.0199996
##########                     HBond_Acceptors:                   5
##########                        HBond_Donors:                   0
##########                         Heavy_Atoms:                  30
##########                          Grid_Score:          -32.694172
##########                     Grid_vdw_energy:          -33.091965
##########                      Grid_es_energy:            0.397792
##########           Internal_energy_repulsive:           24.568411

@<TRIPOS>MOLECULE
ZINC000051488227
 55 58 1 0 0
SMALL
USER_CHARGES


@<TRIPOS>ATOM
      1 O1          1.7446    4.0825   50.0217 O.2     1  ZINC000051488227   -0.5000
      2 C2          1.1972    3.0419   49.7429 C.2     1  ZINC000051488227    0.4800
      3 O3          0.0388    2.7131   50.3359 O.3     1  ZINC000051488227   -0.3400
      4 C4         -0.4312    3.5882   51.3950 C.3     1  ZINC000051488227    0.1100
      5 C5         -1.8693    3.2669   51.7109 C.ar    1  ZINC000051488227   -0.1400
      6 C6         -2.7247    2.8659   50.7014 C.ar    1  ZINC000051488227   -0.0500
      7 C7         -4.0434    2.5709   50.9883 C.ar    1  ZINC000051488227   -0.1500
      8 C8         -4.5091    2.6767   52.2909 C.ar    1  ZINC000051488227    0.1500
      9 O9         -5.8058    2.3865   52.5758 O.3     1  ZINC000051488227   -0.3100
     10 C10        -6.5349    1.6445   51.5961 C.3     1  ZINC000051488227    0.1100
     11 C11        -7.8597    1.2169   52.1733 C.ar    1  ZINC000051488227    0.1200
     12 C12        -8.5538    2.0782   53.0013 C.ar    1  ZINC000051488227   -0.1500
     13 C13        -9.7722    1.6753   53.5268 C.ar    1  ZINC000051488227   -0.0700
     14 C14       -10.2483    0.4155   53.1980 C.ar    1  ZINC000051488227   -0.1700
     15 C15        -9.4980   -0.3913   52.3632 C.ar    1  ZINC000051488227    0.1100
     16 N16        -8.3457    0.0270   51.8778 N.ar    1  ZINC000051488227   -0.4800
     17 C17        -3.6486    3.0787   53.3021 C.ar    1  ZINC000051488227   -0.2100
     18 C18        -2.3296    3.3681   53.0107 C.ar    1  ZINC000051488227   -0.0500
     19 C19         1.8119    2.1164   48.7248 C.3     1  ZINC000051488227    0.0000
     20 C20         2.6803    1.1028   49.4243 C.ar    1  ZINC000051488227   -0.0900
     21 C21         2.4077   -0.2463   49.2967 C.ar    1  ZINC000051488227   -0.1100
     22 C22         3.2043   -1.1762   49.9384 C.ar    1  ZINC000051488227   -0.1200
     23 C23         4.2738   -0.7569   50.7073 C.ar    1  ZINC000051488227   -0.1100
     24 C24         4.5469    0.5923   50.8341 C.ar    1  ZINC000051488227   -0.1200
     25 C25         3.7530    1.5219   50.1890 C.ar    1  ZINC000051488227   -0.1000
     26 C26         0.7029    1.3968   47.9511 C.3     1  ZINC000051488227   -0.1400
     27 C27        -0.1253    2.4297   47.1824 C.3     1  ZINC000051488227    0.0600
     28 O28         0.7301    3.1699   46.3093 O.3     1  ZINC000051488227   -0.3800
     29 C29         1.7576    3.9015   46.9812 C.3     1  ZINC000051488227    0.0500
     30 C30         2.6614    2.9276   47.7417 C.3     1  ZINC000051488227   -0.1400
     31 H31         0.1784    3.4401   52.2863 H       1  ZINC000051488227    0.0800
     32 H32        -0.3537    4.6258   51.0701 H       1  ZINC000051488227    0.0800
     33 H33        -2.3617    2.7837   49.6875 H       1  ZINC000051488227    0.1300
     34 H34        -4.7113    2.2583   50.1993 H       1  ZINC000051488227    0.1400
     35 H35        -6.7052    2.2695   50.7195 H       1  ZINC000051488227    0.0900
     36 H36        -5.9625    0.7627   51.3081 H       1  ZINC000051488227    0.0900
     37 H37        -8.1523    3.0528   53.2366 H       1  ZINC000051488227    0.1400
     38 H38       -10.3366    2.3272   54.1771 H       1  ZINC000051488227    0.1400
     39 H39       -11.1933    0.0687   53.5894 H       1  ZINC000051488227    0.1400
     40 H40        -9.8618   -1.3743   52.1025 H       1  ZINC000051488227    0.1600
     41 H41        -4.0088    3.1623   54.3168 H       1  ZINC000051488227    0.1300
     42 H42        -1.6592    3.6808   53.7977 H       1  ZINC000051488227    0.1300
     43 H43         1.5721   -0.5740   48.6960 H       1  ZINC000051488227    0.1300
     44 H44         2.9909   -2.2302   49.8393 H       1  ZINC000051488227    0.1300
     45 H45         4.8958   -1.4833   51.2092 H       1  ZINC000051488227    0.1200
     46 H46         5.3824    0.9199   51.4351 H       1  ZINC000051488227    0.1200
     47 H47         3.9664    2.5759   50.2881 H       1  ZINC000051488227    0.1300
     48 H48         1.1473    0.6911   47.2492 H       1  ZINC000051488227    0.0900
     49 H49         0.0600    0.8612   48.6495 H       1  ZINC000051488227    0.0900
     50 H50        -0.8894    1.9195   46.5961 H       1  ZINC000051488227    0.1000
     51 H51        -0.6022    3.1107   47.8874 H       1  ZINC000051488227    0.0500
     52 H52         2.3498    4.4515   46.2498 H       1  ZINC000051488227    0.1000
     53 H53         1.3054    4.6017   47.6835 H       1  ZINC000051488227    0.0700
     54 H54         3.4191    3.4869   48.2905 H       1  ZINC000051488227    0.0900
     55 H55         3.1454    2.2529   47.0356 H       1  ZINC000051488227    0.0900
@<TRIPOS>BOND
     1     1     2    2
     2     2     3    1
     3     2    19    1
     4     3     4    1
     5     4     5    1
     6     4    31    1
     7     4    32    1
     8     5    18   ar
     9     5     6   ar
    10     6     7   ar
    11     6    33    1
    12     7     8   ar
    13     7    34    1
    14     8     9    1
    15     8    17   ar
    16     9    10    1
    17    10    11    1
    18    10    35    1
    19    10    36    1
    20    11    16   ar
    21    11    12   ar
    22    12    13   ar
    23    12    37    1
    24    13    14   ar
    25    13    38    1
    26    14    15   ar
    27    14    39    1
    28    15    16   ar
    29    15    40    1
    30    17    18   ar
    31    17    41    1
    32    18    42    1
    33    19    30    1
    34    19    20    1
    35    19    26    1
    36    20    25   ar
    37    20    21   ar
    38    21    22   ar
    39    21    43    1
    40    22    23   ar
    41    22    44    1
    42    23    24   ar
    43    23    45    1
    44    24    25   ar
    45    24    46    1
    46    25    47    1
    47    26    27    1
    48    26    48    1
    49    26    49    1
    50    27    28    1
    51    27    50    1
    52    27    51    1
    53    28    29    1
    54    29    30    1
    55    29    52    1
    56    29    53    1
    57    30    54    1
    58    30    55    1
@<TRIPOS>SUBSTRUCTURE
     1 ZINC000051488227        1 TEMP              0 ****  ****    0 ROOT


##########                                Name:    ZINC000562561773
##########                DOCK_Rotatable_Bonds:                   6
##########                         Heavy_Atoms:                  26
##########                    Molecular_Weight:             371.466
##########                DOCK_Rotatable_Bonds:                   6
##########                       Formal_Charge:           0.0199999
##########                     HBond_Acceptors:                   9
##########                        HBond_Donors:                   0
##########                         Heavy_Atoms:                  26
##########                          Grid_Score:          -32.646851
##########                     Grid_vdw_energy:          -30.457972
##########                      Grid_es_energy:           -2.188880
##########           Internal_energy_repulsive:           11.835483

@<TRIPOS>MOLECULE
ZINC000562561773
 47 50 1 0 0
SMALL
USER_CHARGES


@<TRIPOS>ATOM
      1 C1        -13.2916    0.2223   54.4649 C.3     1  ZINC000562561773   -0.1100
      2 C2        -13.4125    0.4810   52.9852 C.ar    1  ZINC000562561773   -0.0400
      3 C3        -14.6460    0.3934   52.3689 C.ar    1  ZINC000562561773   -0.1200
      4 C4        -14.7635    0.6293   51.0133 C.ar    1  ZINC000562561773   -0.0700
      5 C5        -13.6364    0.9568   50.2623 C.ar    1  ZINC000562561773   -0.0300
      6 C6        -13.7614    1.2111   48.8053 C.2     1  ZINC000562561773    0.2200
      7 N7        -12.9765    1.9629   48.0784 N.2     1  ZINC000562561773   -0.3700
      8 O8        -13.3498    1.9619   46.9245 O.3     1  ZINC000562561773    0.0900
      9 C9        -14.4350    1.1922   46.7950 C.2     1  ZINC000562561773    0.1900
     10 C10       -15.1997    0.9296   45.5233 C.3     1  ZINC000562561773   -0.0100
     11 C11       -15.3050    2.2243   44.7149 C.3     1  ZINC000562561773   -0.1200
     12 S12       -13.7128    2.5762   43.9291 S.3     1  ZINC000562561773    0.0600
     13 C13       -13.7361    1.3757   42.6396 C.2     1  ZINC000562561773    0.2100
     14 N14       -14.7650    0.6429   42.2724 N.2     1  ZINC000562561773   -0.3300
     15 N15       -14.4416   -0.1315   41.3004 N.2     1  ZINC000562561773   -0.0300
     16 N16       -13.2055    0.0445   40.9795 N.2     1  ZINC000562561773   -0.0700
     17 N17       -12.6999    1.0378   41.8362 N.pl3   1  ZINC000562561773   -0.3600
     18 C18       -11.3408    1.5838   41.8606 C.3     1  ZINC000562561773    0.0800
     19 N19       -14.7049    0.7038   47.9800 N.2     1  ZINC000562561773   -0.4600
     20 C20       -12.3929    1.0455   50.8820 C.ar    1  ZINC000562561773   -0.1100
     21 C21       -12.2838    0.8127   52.2450 C.ar    1  ZINC000562561773    0.0800
     22 N22       -11.0383    0.9010   52.8715 N.3     1  ZINC000562561773   -0.4800
     23 C23       -10.0696   -0.0485   52.2662 C.3     1  ZINC000562561773    0.0400
     24 C24        -8.6953    0.5350   52.6805 C.3     1  ZINC000562561773   -0.1200
     25 C25        -8.9246    2.0608   52.5850 C.3     1  ZINC000562561773   -0.1300
     26 C26       -10.4495    2.2460   52.6934 C.3     1  ZINC000562561773    0.0400
     27 H27       -13.4319    1.1559   55.0097 H       1  ZINC000562561773    0.0700
     28 H28       -14.0527   -0.4952   54.7718 H       1  ZINC000562561773    0.0600
     29 H29       -12.3028   -0.1810   54.6837 H       1  ZINC000562561773    0.0800
     30 H30       -15.5209    0.1392   52.9490 H       1  ZINC000562561773    0.1400
     31 H31       -15.7293    0.5594   50.5351 H       1  ZINC000562561773    0.1400
     32 H32       -14.6779    0.1751   44.9347 H       1  ZINC000562561773    0.1200
     33 H33       -16.1998    0.5717   45.7680 H       1  ZINC000562561773    0.1300
     34 H34       -16.0717    2.1127   43.9483 H       1  ZINC000562561773    0.1100
     35 H35       -15.5721    3.0465   45.3788 H       1  ZINC000562561773    0.1100
     36 H36       -11.2820    2.4425   41.1918 H       1  ZINC000562561773    0.1000
     37 H37       -11.0927    1.8959   42.8751 H       1  ZINC000562561773    0.1000
     38 H38       -10.6362    0.8193   41.5331 H       1  ZINC000562561773    0.1100
     39 H39       -11.5165    1.2988   50.3040 H       1  ZINC000562561773    0.1300
     40 H40       -10.2028   -1.0488   52.6781 H       1  ZINC000562561773    0.0900
     41 H41       -10.1706   -0.0615   51.1809 H       1  ZINC000562561773    0.0500
     42 H42        -8.4454    0.2456   53.7012 H       1  ZINC000562561773    0.0800
     43 H43        -7.9166    0.2177   51.9869 H       1  ZINC000562561773    0.0700
     44 H44        -8.4221    2.5711   53.4068 H       1  ZINC000562561773    0.0800
     45 H45        -8.5648    2.4382   51.6277 H       1  ZINC000562561773    0.0700
     46 H46       -10.8340    2.7018   51.7810 H       1  ZINC000562561773    0.0500
     47 H47       -10.6873    2.8722   53.5533 H       1  ZINC000562561773    0.0800
@<TRIPOS>BOND
     1     1     2    1
     2     1    27    1
     3     1    28    1
     4     1    29    1
     5     2    21   ar
     6     2     3   ar
     7     3     4   ar
     8     3    30    1
     9     4     5   ar
    10     4    31    1
    11     5     6    1
    12     5    20   ar
    13     6    19    1
    14     6     7    2
    15     7     8    1
    16     8     9    1
    17     9    10    1
    18     9    19    2
    19    10    11    1
    20    10    32    1
    21    10    33    1
    22    11    12    1
    23    11    34    1
    24    11    35    1
    25    12    13    1
    26    13    17    1
    27    13    14    2
    28    14    15    1
    29    15    16    2
    30    16    17    1
    31    17    18    1
    32    18    36    1
    33    18    37    1
    34    18    38    1
    35    20    21   ar
    36    20    39    1
    37    21    22    1
    38    22    26    1
    39    22    23    1
    40    23    24    1
    41    23    40    1
    42    23    41    1
    43    24    25    1
    44    24    42    1
    45    24    43    1
    46    25    26    1
    47    25    44    1
    48    25    45    1
    49    26    46    1
    50    26    47    1
@<TRIPOS>SUBSTRUCTURE
     1 ZINC000562561773        1 TEMP              0 ****  ****    0 ROOT


##########                                Name:    ZINC000508782983
##########                DOCK_Rotatable_Bonds:                   9
##########                         Heavy_Atoms:                  27
##########                    Molecular_Weight:             373.458
##########                DOCK_Rotatable_Bonds:                   9
##########                       Formal_Charge:          -0.0200006
##########                     HBond_Acceptors:                   9
##########                        HBond_Donors:                   2
##########                         Heavy_Atoms:                  27
##########                          Grid_Score:          -32.549942
##########                     Grid_vdw_energy:          -32.911606
##########                      Grid_es_energy:            0.361664
##########           Internal_energy_repulsive:           10.497462

@<TRIPOS>MOLECULE
ZINC000508782983
 54 56 1 0 0
SMALL
USER_CHARGES


@<TRIPOS>ATOM
      1 C1          0.3119    3.9125   48.3491 C.3     1  ZINC000508782983   -0.1500
      2 C2         -0.7401    2.8523   48.6808 C.3     1  ZINC000508782983   -0.1100
      3 C3         -0.5051    1.6125   47.8155 C.3     1  ZINC000508782983   -0.1500
      4 C4         -0.6316    2.4708   50.1585 C.3     1  ZINC000508782983    0.1000
      5 N5         -1.2752    3.5011   50.9773 N.pl3   1  ZINC000508782983   -0.4400
      6 C6         -0.6476    4.5203   51.6414 C.2     1  ZINC000508782983   -0.0400
      7 C7         -1.6082    5.2296   52.2641 C.2     1  ZINC000508782983   -0.0300
      8 N8         -2.7902    4.6591   51.9876 N.2     1  ZINC000508782983   -0.4700
      9 C9         -2.5989    3.6261   51.2133 C.2     1  ZINC000508782983    0.1700
     10 C10        -3.6761    2.7178   50.6788 C.3     1  ZINC000508782983    0.2100
     11 N11        -4.9846    3.1872   51.1411 N.am    1  ZINC000508782983   -0.6900
     12 C12        -6.1079    2.7603   50.5308 C.2     1  ZINC000508782983    0.5100
     13 O13        -6.0353    1.9883   49.5974 O.2     1  ZINC000508782983   -0.5100
     14 C14        -7.4428    3.2378   51.0036 C.2     1  ZINC000508782983    0.5100
     15 O15        -7.9248    4.2497   50.5384 O.2     1  ZINC000508782983   -0.5200
     16 N16        -8.1113    2.5446   51.9465 N.am    1  ZINC000508782983   -0.5800
     17 C17        -9.4289    2.9935   52.4213 C.3     1  ZINC000508782983    0.0800
     18 C18       -10.4042    1.8145   52.3376 C.3     1  ZINC000508782983    0.0400
     19 N19        -9.8417    0.6657   53.0601 N.3     1  ZINC000508782983   -0.5400
     20 C20       -10.8179   -0.4283   53.1507 C.3     1  ZINC000508782983    0.1400
     21 C21       -10.8767   -0.9327   54.5696 C.2     1  ZINC000508782983    0.2100
     22 N22       -11.1684   -2.1520   54.9320 N.2     1  ZINC000508782983   -0.4900
     23 C23       -11.1247   -2.2383   56.2697 C.2     1  ZINC000508782983   -0.0300
     24 C24       -10.7934   -1.0266   56.7548 C.2     1  ZINC000508782983   -0.0500
     25 N25       -10.6308   -0.1992   55.6765 N.pl3   1  ZINC000508782983   -0.5600
     26 C26        -8.5919    0.2061   52.4398 C.3     1  ZINC000508782983    0.0400
     27 C27        -7.5451    1.3158   52.5234 C.3     1  ZINC000508782983    0.1100
     28 H28         0.2346    4.1842   47.2964 H       1  ZINC000508782983    0.0700
     29 H29         0.1445    4.7958   48.9656 H       1  ZINC000508782983    0.0600
     30 H30         1.3061    3.5129   48.5492 H       1  ZINC000508782983    0.0600
     31 H31        -1.7343    3.2518   48.4806 H       1  ZINC000508782983    0.0800
     32 H32         0.5158    1.2581   47.9581 H       1  ZINC000508782983    0.0600
     33 H33        -1.2054    0.8291   48.1052 H       1  ZINC000508782983    0.0600
     34 H34        -0.6582    1.8670   46.7667 H       1  ZINC000508782983    0.0600
     35 H35        -1.1262    1.5138   50.3239 H       1  ZINC000508782983    0.1000
     36 H36         0.4192    2.3897   50.4365 H       1  ZINC000508782983    0.0900
     37 H37         0.4141    4.7175   51.6624 H       1  ZINC000508782983    0.1800
     38 H38        -1.4540    6.1045   52.8781 H       1  ZINC000508782983    0.1700
     39 H39        -3.6511    2.7266   49.5891 H       1  ZINC000508782983    0.0900
     40 H40        -3.5067    1.7026   51.0379 H       1  ZINC000508782983    0.1100
     41 H41        -5.0425    3.8053   51.8864 H       1  ZINC000508782983    0.4200
     42 H42        -9.3502    3.3309   53.4549 H       1  ZINC000508782983    0.0800
     43 H43        -9.7861    3.8095   51.7931 H       1  ZINC000508782983    0.1400
     44 H44       -11.3558    2.0969   52.7879 H       1  ZINC000508782983    0.0900
     45 H45       -10.5611    1.5458   51.2930 H       1  ZINC000508782983    0.0400
     46 H46       -11.8011   -0.0635   52.8538 H       1  ZINC000508782983    0.0900
     47 H47       -10.5164   -1.2402   52.4888 H       1  ZINC000508782983    0.0700
     48 H48       -11.3208   -3.1244   56.8552 H       1  ZINC000508782983    0.1700
     49 H49       -10.6747   -0.7598   57.7946 H       1  ZINC000508782983    0.1800
     50 H50       -10.3894    0.7399   55.7028 H       1  ZINC000508782983    0.4200
     51 H51        -8.2293   -0.6780   52.9643 H       1  ZINC000508782983    0.1100
     52 H52        -8.7742   -0.0402   51.3938 H       1  ZINC000508782983    0.0400
     53 H53        -6.6559    1.0232   51.9651 H       1  ZINC000508782983    0.1000
     54 H54        -7.2837    1.4948   53.5663 H       1  ZINC000508782983    0.0800
@<TRIPOS>BOND
     1     1     2    1
     2     1    28    1
     3     1    29    1
     4     1    30    1
     5     2     3    1
     6     2     4    1
     7     2    31    1
     8     3    32    1
     9     3    33    1
    10     3    34    1
    11     4     5    1
    12     4    35    1
    13     4    36    1
    14     5     9    1
    15     5     6    1
    16     6     7    2
    17     6    37    1
    18     7     8    1
    19     7    38    1
    20     8     9    2
    21     9    10    1
    22    10    11    1
    23    10    39    1
    24    10    40    1
    25    11    12   am
    26    11    41    1
    27    12    13    2
    28    12    14    1
    29    14    15    2
    30    14    16   am
    31    16    27    1
    32    16    17    1
    33    17    18    1
    34    17    42    1
    35    17    43    1
    36    18    19    1
    37    18    44    1
    38    18    45    1
    39    19    20    1
    40    19    26    1
    41    20    21    1
    42    20    46    1
    43    20    47    1
    44    21    25    1
    45    21    22    2
    46    22    23    1
    47    23    24    2
    48    23    48    1
    49    24    25    1
    50    24    49    1
    51    25    50    1
    52    26    27    1
    53    26    51    1
    54    26    52    1
    55    27    53    1
    56    27    54    1
@<TRIPOS>SUBSTRUCTURE
     1 ZINC000508782983        1 TEMP              0 ****  ****    0 ROOT


##########                                Name:    ZINC000654382142
##########                DOCK_Rotatable_Bonds:                  14
##########                         Heavy_Atoms:                  24
##########                    Molecular_Weight:             379.401
##########                DOCK_Rotatable_Bonds:                  14
##########                       Formal_Charge:          0.00999933
##########                     HBond_Acceptors:                  12
##########                        HBond_Donors:                   2
##########                         Heavy_Atoms:                  24
##########                          Grid_Score:          -32.493080
##########                     Grid_vdw_energy:          -29.121836
##########                      Grid_es_energy:           -3.371245
##########           Internal_energy_repulsive:           13.905053

@<TRIPOS>MOLECULE
ZINC000654382142
 48 47 1 0 0
SMALL
USER_CHARGES


@<TRIPOS>ATOM
      1 C1         -0.9799    1.8213   56.7742 C.3     1  ZINC000654382142    0.0300
      2 O2         -1.6414    3.0650   57.0149 O.3     1  ZINC000654382142   -0.3700
      3 C3         -2.2442    3.6372   55.8525 C.3     1  ZINC000654382142    0.0400
      4 C4         -3.3369    2.7015   55.3316 C.3     1  ZINC000654382142    0.1400
      5 N5         -4.3573    3.4848   54.6305 N.am    1  ZINC000654382142   -0.6100
      6 C6         -5.4993    4.0286   55.3696 C.3     1  ZINC000654382142    0.0800
      7 C7         -6.4801    2.9003   55.6951 C.3     1  ZINC000654382142    0.0500
      8 H8         -5.9635    2.1194   56.2531 H       1  ZINC000654382142    0.1400
      9 O9         -6.9983    2.3545   54.4803 O.3     1  ZINC000654382142   -0.5200
     10 C10        -7.6315    3.4528   56.5379 C.3     1  ZINC000654382142    0.4200
     11 F11        -8.5190    2.4175   56.8507 F       1  ZINC000654382142   -0.1800
     12 F12        -7.1225    4.0034   57.7188 F       1  ZINC000654382142   -0.1700
     13 F13        -8.3057    4.4424   55.8145 F       1  ZINC000654382142   -0.1800
     14 C14        -4.2454    3.7050   53.3057 C.2     1  ZINC000654382142    0.7100
     15 O15        -5.0916    4.3564   52.7241 O.2     1  ZINC000654382142   -0.5600
     16 N16        -3.1957    3.2034   52.6254 N.am    1  ZINC000654382142   -0.7500
     17 C17        -3.0751    3.4414   51.1848 C.3     1  ZINC000654382142    0.1400
     18 C18        -2.1191    2.4133   50.5764 C.3     1  ZINC000654382142   -0.1600
     19 C19        -1.0117    3.1382   49.8091 C.3     1  ZINC000654382142    0.1200
     20 N20        -0.0423    2.1597   49.3100 N.am    1  ZINC000654382142   -1.0000
     21 C21         0.8179    1.4360   50.2495 C.3     1  ZINC000654382142    0.0900
     22 S22         0.0812    1.8717   47.6840 S.o2    1  ZINC000654382142    2.6100
     23 C23         0.5296    3.4790   46.9724 C.3     1  ZINC000654382142   -0.6800
     24 O24         1.1629    0.9572   47.5712 O.2     1  ZINC000654382142   -0.9500
     25 O25        -1.2340    1.5027   47.2925 O.2     1  ZINC000654382142   -0.9500
     26 H26        -0.5490    1.4528   57.7051 H       1  ZINC000654382142    0.0900
     27 H27        -1.6985    1.0952   56.3939 H       1  ZINC000654382142    0.0400
     28 H28        -0.1877    1.9674   56.0398 H       1  ZINC000654382142    0.0400
     29 H29        -2.6832    4.6015   56.1082 H       1  ZINC000654382142    0.0500
     30 H30        -1.4866    3.7759   55.0813 H       1  ZINC000654382142    0.0600
     31 H31        -2.8984    1.9780   54.6443 H       1  ZINC000654382142    0.0900
     32 H32        -3.7947    2.1756   56.1695 H       1  ZINC000654382142    0.1000
     33 H33        -5.1491    4.4840   56.2959 H       1  ZINC000654382142    0.1000
     34 H34        -6.0005    4.7816   54.7614 H       1  ZINC000654382142    0.1000
     35 H35        -6.3230    1.9829   53.8964 H       1  ZINC000654382142    0.3900
     36 H36        -2.5200    2.6848   53.0896 H       1  ZINC000654382142    0.3900
     37 H37        -4.0554    3.3471   50.7177 H       1  ZINC000654382142    0.0700
     38 H38        -2.6861    4.4451   51.0137 H       1  ZINC000654382142    0.0700
     39 H39        -1.6771    1.8130   51.3716 H       1  ZINC000654382142    0.0700
     40 H40        -2.6690    1.7648   49.8945 H       1  ZINC000654382142    0.0800
     41 H41        -1.4464    3.6800   48.9690 H       1  ZINC000654382142    0.0900
     42 H42        -0.5092    3.8411   50.4738 H       1  ZINC000654382142    0.1000
     43 H43         0.3233    0.5157   50.5600 H       1  ZINC000654382142    0.0600
     44 H44         1.7635    1.1945   49.7642 H       1  ZINC000654382142    0.0700
     45 H45         1.0068    2.0596   51.1234 H       1  ZINC000654382142    0.0700
     46 H46         1.4750    3.8142   47.3992 H       1  ZINC000654382142    0.1300
     47 H47         0.6332    3.3818   45.8916 H       1  ZINC000654382142    0.1300
     48 H48        -0.2496    4.2067   47.1987 H       1  ZINC000654382142    0.1300
@<TRIPOS>BOND
     1     1     2    1
     2     1    26    1
     3     1    27    1
     4     1    28    1
     5     2     3    1
     6     3     4    1
     7     3    29    1
     8     3    30    1
     9     4     5    1
    10     4    31    1
    11     4    32    1
    12     5     6    1
    13     5    14   am
    14     6     7    1
    15     6    33    1
    16     6    34    1
    17     7     8    1
    18     7     9    1
    19     7    10    1
    20     9    35    1
    21    10    11    1
    22    10    12    1
    23    10    13    1
    24    14    15    2
    25    14    16   am
    26    16    17    1
    27    16    36    1
    28    17    18    1
    29    17    37    1
    30    17    38    1
    31    18    19    1
    32    18    39    1
    33    18    40    1
    34    19    20    1
    35    19    41    1
    36    19    42    1
    37    20    21    1
    38    20    22   am
    39    21    43    1
    40    21    44    1
    41    21    45    1
    42    22    23    1
    43    22    24    2
    44    22    25    2
    45    23    46    1
    46    23    47    1
    47    23    48    1
@<TRIPOS>SUBSTRUCTURE
     1 ZINC000654382142        1 TEMP              0 ****  ****    0 ROOT


##########                                Name:    ZINC000027473870
##########                DOCK_Rotatable_Bonds:                  10
##########                         Heavy_Atoms:                  31
##########                    Molecular_Weight:             422.502
##########                DOCK_Rotatable_Bonds:                  10
##########                       Formal_Charge:        -7.45058e-08
##########                     HBond_Acceptors:                   7
##########                        HBond_Donors:                   1
##########                         Heavy_Atoms:                  31
##########                          Grid_Score:          -32.491982
##########                     Grid_vdw_energy:          -31.661825
##########                      Grid_es_energy:           -0.830158
##########           Internal_energy_repulsive:           16.690113

@<TRIPOS>MOLECULE
ZINC000027473870
 58 60 1 0 0
SMALL
USER_CHARGES


@<TRIPOS>ATOM
      1 C1         -7.4795    1.7516   57.3258 C.3     1  ZINC000027473870   -0.1400
      2 C2         -8.9856    2.0201   57.3088 C.3     1  ZINC000027473870   -0.0800
      3 C3         -9.7278    0.7128   57.2037 C.2     1  ZINC000027473870    0.1700
      4 C4        -10.3107    0.1928   56.0651 C.2     1  ZINC000027473870   -0.2900
      5 C5        -10.3229    0.8120   54.7274 C.2     1  ZINC000027473870    0.6000
      6 O6        -11.2928    1.4469   54.3602 O.2     1  ZINC000027473870   -0.5400
      7 N7         -9.2591    0.6745   53.9114 N.am    1  ZINC000027473870   -0.7200
      8 C8         -9.2706    1.2913   52.5826 C.3     1  ZINC000027473870    0.1600
      9 C9         -7.8604    1.6321   52.1749 C.ar    1  ZINC000027473870   -0.0900
     10 C10        -7.0470    0.6562   51.6269 C.ar    1  ZINC000027473870   -0.1100
     11 C11        -5.7549    0.9614   51.2519 C.ar    1  ZINC000027473870   -0.1100
     12 C12        -5.2689    2.2581   51.4263 C.ar    1  ZINC000027473870   -0.1200
     13 C13        -3.8852    2.5925   51.0263 C.2     1  ZINC000027473870    0.5600
     14 O14        -3.5908    2.6527   49.8486 O.2     1  ZINC000027473870   -0.5300
     15 N15        -2.9505    2.8305   51.9677 N.am    1  ZINC000027473870   -0.6100
     16 C16        -3.3055    2.7580   53.3871 C.3     1  ZINC000027473870    0.1100
     17 C17        -3.1762    4.1464   54.0167 C.3     1  ZINC000027473870   -0.1700
     18 C18        -1.5796    3.1618   51.5714 C.3     1  ZINC000027473870    0.0900
     19 C19        -1.5195    4.6205   51.1134 C.3     1  ZINC000027473870   -0.1800
     20 C20        -6.0947    3.2380   51.9793 C.ar    1  ZINC000027473870   -0.0700
     21 C21        -7.3866    2.9208   52.3452 C.ar    1  ZINC000027473870   -0.1000
     22 C22       -10.8932   -1.0443   56.4221 C.2     1  ZINC000027473870    0.0900
     23 N23       -10.6698   -1.2453   57.6919 N.2     1  ZINC000027473870   -0.2800
     24 N24        -9.9393   -0.1655   58.2004 N.pl3   1  ZINC000027473870   -0.3100
     25 C25        -9.5091   -0.0191   59.5269 C.ar    1  ZINC000027473870    0.1300
     26 C26       -10.1405    0.8890   60.3661 C.ar    1  ZINC000027473870   -0.0900
     27 C27        -9.7156    1.0315   61.6724 C.ar    1  ZINC000027473870   -0.1300
     28 C28        -8.6605    0.2693   62.1453 C.ar    1  ZINC000027473870    0.1100
     29 F29        -8.2465    0.4097   63.4237 F       1  ZINC000027473870   -0.1300
     30 C30        -8.0294   -0.6370   61.3096 C.ar    1  ZINC000027473870   -0.1400
     31 C31        -8.4549   -0.7860   60.0042 C.ar    1  ZINC000027473870   -0.0700
     32 H32        -6.9412    2.6993   57.3133 H       1  ZINC000027473870    0.0700
     33 H33        -7.2193    1.1979   58.2279 H       1  ZINC000027473870    0.0700
     34 H34        -7.2049    1.1662   56.4483 H       1  ZINC000027473870    0.0500
     35 H35        -9.2744    2.5290   58.2285 H       1  ZINC000027473870    0.1200
     36 H36        -9.2330    2.6483   56.4530 H       1  ZINC000027473870    0.0800
     37 H37        -8.4859    0.1669   54.2038 H       1  ZINC000027473870    0.4000
     38 H38        -9.6988    0.5945   51.8622 H       1  ZINC000027473870    0.0800
     39 H39        -9.8709    2.2007   52.6095 H       1  ZINC000027473870    0.0800
     40 H40        -7.4243   -0.3468   51.4925 H       1  ZINC000027473870    0.1300
     41 H41        -5.1207    0.1986   50.8249 H       1  ZINC000027473870    0.1500
     42 H42        -4.3329    2.4078   53.4873 H       1  ZINC000027473870    0.0800
     43 H43        -2.6344    2.0649   53.8945 H       1  ZINC000027473870    0.0800
     44 H44        -3.4403    4.0924   55.0729 H       1  ZINC000027473870    0.0700
     45 H45        -2.1488    4.4965   53.9165 H       1  ZINC000027473870    0.0600
     46 H46        -3.8473    4.8394   53.5093 H       1  ZINC000027473870    0.0600
     47 H47        -0.9115    3.0199   52.4208 H       1  ZINC000027473870    0.0800
     48 H48        -1.2705    2.5111   50.7533 H       1  ZINC000027473870    0.0900
     49 H49        -0.5833    4.7967   50.5838 H       1  ZINC000027473870    0.0700
     50 H50        -2.3578    4.8273   50.4482 H       1  ZINC000027473870    0.0700
     51 H51        -1.5746    5.2766   51.9822 H       1  ZINC000027473870    0.0600
     52 H52        -5.7244    4.2432   52.1172 H       1  ZINC000027473870    0.1300
     53 H53        -8.0268    3.6781   52.7729 H       1  ZINC000027473870    0.1300
     54 H54       -11.4300   -1.7073   55.7597 H       1  ZINC000027473870    0.1900
     55 H55       -10.9631    1.4838   59.9976 H       1  ZINC000027473870    0.1500
     56 H56       -10.2063    1.7380   62.3255 H       1  ZINC000027473870    0.1500
     57 H57        -7.2065   -1.2302   61.6801 H       1  ZINC000027473870    0.1500
     58 H58        -7.9627   -1.4932   59.3530 H       1  ZINC000027473870    0.1400
@<TRIPOS>BOND
     1     1     2    1
     2     1    32    1
     3     1    33    1
     4     1    34    1
     5     2     3    1
     6     2    35    1
     7     2    36    1
     8     3    24    1
     9     3     4    2
    10     4     5    1
    11     4    22    1
    12     5     6    2
    13     5     7   am
    14     7     8    1
    15     7    37    1
    16     8     9    1
    17     8    38    1
    18     8    39    1
    19     9    21   ar
    20     9    10   ar
    21    10    11   ar
    22    10    40    1
    23    11    12   ar
    24    11    41    1
    25    12    13    1
    26    12    20   ar
    27    13    14    2
    28    13    15   am
    29    15    16    1
    30    15    18    1
    31    16    17    1
    32    16    42    1
    33    16    43    1
    34    17    44    1
    35    17    45    1
    36    17    46    1
    37    18    19    1
    38    18    47    1
    39    18    48    1
    40    19    49    1
    41    19    50    1
    42    19    51    1
    43    20    21   ar
    44    20    52    1
    45    21    53    1
    46    22    23    2
    47    22    54    1
    48    23    24    1
    49    24    25    1
    50    25    31   ar
    51    25    26   ar
    52    26    27   ar
    53    26    55    1
    54    27    28   ar
    55    27    56    1
    56    28    29    1
    57    28    30   ar
    58    30    31   ar
    59    30    57    1
    60    31    58    1
@<TRIPOS>SUBSTRUCTURE
     1 ZINC000027473870        1 TEMP              0 ****  ****    0 ROOT


##########                                Name:    ZINC000821177065
##########                DOCK_Rotatable_Bonds:                  10
##########                         Heavy_Atoms:                  25
##########                    Molecular_Weight:             341.413
##########                DOCK_Rotatable_Bonds:                  10
##########                       Formal_Charge:          0.00999917
##########                     HBond_Acceptors:                   7
##########                        HBond_Donors:                   3
##########                         Heavy_Atoms:                  25
##########                          Grid_Score:          -32.423939
##########                     Grid_vdw_energy:          -30.631927
##########                      Grid_es_energy:           -1.792013
##########           Internal_energy_repulsive:           17.123476

@<TRIPOS>MOLECULE
ZINC000821177065
 48 51 1 0 0
SMALL
USER_CHARGES


@<TRIPOS>ATOM
      1 O1         -1.0435    1.9846   50.3065 O.2     1  ZINC000821177065   -0.5600
      2 C2         -1.8609    2.5431   49.6006 C.2     1  ZINC000821177065    0.7100
      3 N3         -3.0919    2.8128   50.0786 N.am    1  ZINC000821177065   -0.7300
      4 C4         -3.4469    2.4277   51.4469 C.3     1  ZINC000821177065    0.1200
      5 C5         -4.2226    3.5664   52.1122 C.3     1  ZINC000821177065    0.1900
      6 O6         -3.6529    4.8192   51.7276 O.3     1  ZINC000821177065   -0.5400
      7 C7         -5.6859    3.5140   51.6687 C.3     1  ZINC000821177065   -0.1500
      8 C8         -6.7565    3.5372   52.7615 C.3     1  ZINC000821177065   -0.1600
      9 C9         -6.5342    4.7694   51.8821 C.3     1  ZINC000821177065   -0.1700
     10 C10        -4.1449    3.4161   53.6328 C.3     1  ZINC000821177065   -0.1800
     11 C11        -2.8641    3.8866   54.3248 C.3     1  ZINC000821177065   -0.1900
     12 C12        -4.1540    4.6963   54.4707 C.3     1  ZINC000821177065   -0.1700
     13 N13        -1.5344    2.8974   48.3419 N.am    1  ZINC000821177065   -0.6500
     14 C14        -0.2540    2.6168   47.8446 C.2     1  ZINC000821177065    0.3200
     15 N15         0.2721    1.4236   47.6994 N.2     1  ZINC000821177065   -0.3200
     16 N16         1.5619    1.5757   47.1748 N.pl3   1  ZINC000821177065   -0.3600
     17 C17         2.4961    0.4922   46.8597 C.3     1  ZINC000821177065    0.1900
     18 C18         2.8460   -0.2525   48.1222 C.ar    1  ZINC000821177065    0.1100
     19 C19         3.8572    0.2209   48.9363 C.ar    1  ZINC000821177065   -0.1500
     20 C20         4.1711   -0.4715   50.0960 C.ar    1  ZINC000821177065   -0.0700
     21 C21         3.4528   -1.6190   50.3943 C.ar    1  ZINC000821177065   -0.1700
     22 C22         2.4545   -2.0319   49.5320 C.ar    1  ZINC000821177065    0.1000
     23 N23         2.1799   -1.3455   48.4402 N.ar    1  ZINC000821177065   -0.4700
     24 C24         1.7932    2.8951   47.0097 C.2     1  ZINC000821177065    0.0700
     25 C25         0.6873    3.5632   47.4093 C.2     1  ZINC000821177065   -0.2600
     26 H26        -3.7427    3.2619   49.5168 H       1  ZINC000821177065    0.4000
     27 H27        -4.0667    1.5314   51.4228 H       1  ZINC000821177065    0.0700
     28 H28        -2.5387    2.2264   52.0149 H       1  ZINC000821177065    0.0800
     29 H29        -2.7224    4.9195   51.9710 H       1  ZINC000821177065    0.3800
     30 H30        -5.8867    2.9161   50.7796 H       1  ZINC000821177065    0.1100
     31 H31        -7.6618    2.9544   52.5916 H       1  ZINC000821177065    0.0900
     32 H32        -6.4184    3.5898   53.7963 H       1  ZINC000821177065    0.1100
     33 H33        -6.0497    5.6326   52.3384 H       1  ZINC000821177065    0.1000
     34 H34        -7.2932    4.9971   51.1337 H       1  ZINC000821177065    0.0900
     35 H35        -4.6478    2.5413   54.0450 H       1  ZINC000821177065    0.1100
     36 H36        -2.5239    3.3213   55.1923 H       1  ZINC000821177065    0.1000
     37 H37        -2.0766    4.3033   53.6967 H       1  ZINC000821177065    0.1100
     38 H38        -4.2153    5.6456   53.9386 H       1  ZINC000821177065    0.0900
     39 H39        -4.6625    4.6636   55.4342 H       1  ZINC000821177065    0.1000
     40 H40        -2.1853    3.3464   47.7801 H       1  ZINC000821177065    0.4100
     41 H41         2.0319   -0.1932   46.1505 H       1  ZINC000821177065    0.1000
     42 H42         3.4024    0.9098   46.4211 H       1  ZINC000821177065    0.1200
     43 H43         4.3966    1.1187   48.6725 H       1  ZINC000821177065    0.1400
     44 H44         4.9568   -0.1252   50.7512 H       1  ZINC000821177065    0.1400
     45 H45         3.6704   -2.1834   51.2890 H       1  ZINC000821177065    0.1400
     46 H46         1.8905   -2.9250   49.7569 H       1  ZINC000821177065    0.1600
     47 H47         2.6988    3.3384   46.6228 H       1  ZINC000821177065    0.1800
     48 H48         0.5546    4.6350   47.4018 H       1  ZINC000821177065    0.1700
@<TRIPOS>BOND
     1     1     2    2
     2     2     3   am
     3     2    13   am
     4     3     4    1
     5     3    26    1
     6     4     5    1
     7     4    27    1
     8     4    28    1
     9     5     6    1
    10     5     7    1
    11     5    10    1
    12     6    29    1
    13     7     9    1
    14     7     8    1
    15     7    30    1
    16     8     9    1
    17     8    31    1
    18     8    32    1
    19     9    33    1
    20     9    34    1
    21    10    12    1
    22    10    11    1
    23    10    35    1
    24    11    12    1
    25    11    36    1
    26    11    37    1
    27    12    38    1
    28    12    39    1
    29    13    14    1
    30    13    40    1
    31    14    25    1
    32    14    15    2
    33    15    16    1
    34    16    17    1
    35    16    24    1
    36    17    18    1
    37    17    41    1
    38    17    42    1
    39    18    23   ar
    40    18    19   ar
    41    19    20   ar
    42    19    43    1
    43    20    21   ar
    44    20    44    1
    45    21    22   ar
    46    21    45    1
    47    22    23   ar
    48    22    46    1
    49    24    25    2
    50    24    47    1
    51    25    48    1
@<TRIPOS>SUBSTRUCTURE
     1 ZINC000821177065        1 TEMP              0 ****  ****    0 ROOT


##########                                Name:    ZINC000547864253
##########                DOCK_Rotatable_Bonds:                   6
##########                         Heavy_Atoms:                  30
##########                    Molecular_Weight:             422.548
##########                DOCK_Rotatable_Bonds:                   6
##########                       Formal_Charge:           0.0300002
##########                     HBond_Acceptors:                   6
##########                        HBond_Donors:                   2
##########                         Heavy_Atoms:                  30
##########                          Grid_Score:          -32.413570
##########                     Grid_vdw_energy:          -30.844704
##########                      Grid_es_energy:           -1.568865
##########           Internal_energy_repulsive:           15.127739

@<TRIPOS>MOLECULE
ZINC000547864253
 56 60 1 0 0
SMALL
USER_CHARGES


@<TRIPOS>ATOM
      1 O1         -1.6297    1.9273   48.7973 O.2     1  ZINC000547864253   -0.5300
      2 C2         -0.8858    2.7253   49.3269 C.2     1  ZINC000547864253    0.5400
      3 N3         -1.2679    3.3574   50.4544 N.am    1  ZINC000547864253   -0.7200
      4 C4         -2.5843    3.0848   51.0367 C.3     1  ZINC000547864253    0.1300
      5 C5         -2.8877    4.1223   52.1194 C.3     1  ZINC000547864253    0.0200
      6 H6         -2.3571    5.0476   51.8949 H       1  ZINC000547864253    0.0900
      7 C7         -4.3702    4.3900   52.1574 C.2     1  ZINC000547864253   -0.1600
      8 C8         -4.9630    5.5646   52.4235 C.2     1  ZINC000547864253    0.0600
      9 N9         -6.3230    5.4242   52.3676 N.pl3   1  ZINC000547864253   -0.5900
     10 C10        -6.6469    4.1225   52.0562 C.ar    1  ZINC000547864253    0.1000
     11 C11        -7.8522    3.4519   51.8785 C.ar    1  ZINC000547864253   -0.1300
     12 C12        -7.8490    2.1104   51.5637 C.ar    1  ZINC000547864253   -0.1000
     13 C13        -6.6538    1.4196   51.4214 C.ar    1  ZINC000547864253   -0.1400
     14 C14        -5.4580    2.0589   51.5915 C.ar    1  ZINC000547864253   -0.0700
     15 C15        -5.4377    3.4191   51.9046 C.ar    1  ZINC000547864253   -0.1000
     16 C16        -2.4376    3.5974   53.4584 C.ar    1  ZINC000547864253   -0.0700
     17 C17        -3.3118    2.8713   54.2455 C.ar    1  ZINC000547864253   -0.1100
     18 C18        -2.8989    2.3898   55.4737 C.ar    1  ZINC000547864253   -0.1200
     19 C19        -1.6117    2.6341   55.9147 C.ar    1  ZINC000547864253   -0.1200
     20 C20        -0.7373    3.3594   55.1273 C.ar    1  ZINC000547864253   -0.1100
     21 C21        -1.1488    3.8372   53.8971 C.ar    1  ZINC000547864253   -0.1200
     22 C22         0.4684    3.0057   48.7280 C.3     1  ZINC000547864253   -0.1700
     23 H23         0.6995    4.0577   48.5603 H       1  ZINC000547864253    0.1400
     24 C24         1.0197    1.9925   47.7231 C.3     1  ZINC000547864253   -0.1300
     25 C25         1.6230    2.0832   49.1279 C.3     1  ZINC000547864253   -0.1400
     26 C26         3.0112    2.7114   49.2582 C.3     1  ZINC000547864253   -0.0700
     27 C27         4.0814    1.6744   48.9105 C.3     1  ZINC000547864253   -0.6000
     28 S28         3.9585    0.2790   50.0654 S.o2    1  ZINC000547864253    2.4200
     29 O29         4.8125   -0.7623   49.6118 O.2     1  ZINC000547864253   -0.9400
     30 O30         4.1066    0.7716   51.3900 O.2     1  ZINC000547864253   -0.9300
     31 C31         2.2348   -0.2395   49.8271 C.3     1  ZINC000547864253   -0.6000
     32 C32         1.3094    0.9476   50.1030 C.3     1  ZINC000547864253   -0.0700
     33 H33        -0.6713    3.9927   50.8802 H       1  ZINC000547864253    0.4000
     34 H34        -3.3445    3.1396   50.2576 H       1  ZINC000547864253    0.0800
     35 H35        -2.5871    2.0880   51.4777 H       1  ZINC000547864253    0.0700
     36 H36        -4.4435    6.4842   52.6488 H       1  ZINC000547864253    0.1700
     37 H37        -6.9635    6.1356   52.5241 H       1  ZINC000547864253    0.4200
     38 H38        -8.7877    3.9806   51.9875 H       1  ZINC000547864253    0.1200
     39 H39        -8.7861    1.5913   51.4266 H       1  ZINC000547864253    0.1300
     40 H40        -6.6689    0.3682   51.1747 H       1  ZINC000547864253    0.1200
     41 H41        -4.5318    1.5148   51.4792 H       1  ZINC000547864253    0.1200
     42 H42        -4.3174    2.6805   53.9010 H       1  ZINC000547864253    0.1200
     43 H43        -3.5821    1.8231   56.0890 H       1  ZINC000547864253    0.1200
     44 H44        -1.2894    2.2584   56.8746 H       1  ZINC000547864253    0.1200
     45 H45         0.2683    3.5504   55.4719 H       1  ZINC000547864253    0.1200
     46 H46        -0.4656    4.4038   53.2819 H       1  ZINC000547864253    0.1200
     47 H47         0.4031    1.1231   47.4952 H       1  ZINC000547864253    0.1100
     48 H48         1.6139    2.3778   46.8945 H       1  ZINC000547864253    0.1100
     49 H49         3.0916    3.5581   48.5765 H       1  ZINC000547864253    0.0900
     50 H50         3.1589    3.0556   50.2818 H       1  ZINC000547864253    0.0900
     51 H51         3.9264    1.3188   47.8919 H       1  ZINC000547864253    0.1400
     52 H52         5.0689    2.1288   48.9921 H       1  ZINC000547864253    0.1400
     53 H53         2.0953   -0.5792   48.8009 H       1  ZINC000547864253    0.1400
     54 H54         2.0004   -1.0516   50.5154 H       1  ZINC000547864253    0.1400
     55 H55         1.4603    1.2951   51.1250 H       1  ZINC000547864253    0.0900
     56 H56         0.2726    0.6363   49.9758 H       1  ZINC000547864253    0.0900
@<TRIPOS>BOND
     1     1     2    2
     2     2     3   am
     3     2    22    1
     4     3     4    1
     5     3    33    1
     6     4     5    1
     7     4    34    1
     8     4    35    1
     9     5     6    1
    10     5     7    1
    11     5    16    1
    12     7    15    1
    13     7     8    2
    14     8     9    1
    15     8    36    1
    16     9    10    1
    17     9    37    1
    18    10    15   ar
    19    10    11   ar
    20    11    12   ar
    21    11    38    1
    22    12    13   ar
    23    12    39    1
    24    13    14   ar
    25    13    40    1
    26    14    15   ar
    27    14    41    1
    28    16    21   ar
    29    16    17   ar
    30    17    18   ar
    31    17    42    1
    32    18    19   ar
    33    18    43    1
    34    19    20   ar
    35    19    44    1
    36    20    21   ar
    37    20    45    1
    38    21    46    1
    39    22    23    1
    40    22    25    1
    41    22    24    1
    42    24    25    1
    43    24    47    1
    44    24    48    1
    45    25    32    1
    46    25    26    1
    47    26    27    1
    48    26    49    1
    49    26    50    1
    50    27    28    1
    51    27    51    1
    52    27    52    1
    53    28    29    2
    54    28    30    2
    55    28    31    1
    56    31    32    1
    57    31    53    1
    58    31    54    1
    59    32    55    1
    60    32    56    1
@<TRIPOS>SUBSTRUCTURE
     1 ZINC000547864253        1 TEMP              0 ****  ****    0 ROOT


##########                                Name:    ZINC000637608314
##########                DOCK_Rotatable_Bonds:                   9
##########                         Heavy_Atoms:                  28
##########                    Molecular_Weight:             387.479
##########                DOCK_Rotatable_Bonds:                   9
##########                       Formal_Charge:           0.0499991
##########                     HBond_Acceptors:                   7
##########                        HBond_Donors:                   2
##########                         Heavy_Atoms:                  28
##########                          Grid_Score:          -32.360985
##########                     Grid_vdw_energy:          -31.440971
##########                      Grid_es_energy:           -0.920014
##########           Internal_energy_repulsive:           16.509573

@<TRIPOS>MOLECULE
ZINC000637608314
 57 59 1 0 0
SMALL
USER_CHARGES


@<TRIPOS>ATOM
      1 C1          2.4904   -0.9569   49.5112 C.3     1  ZINC000637608314   -0.1400
      2 C2          2.3338    0.2392   48.5700 C.3     1  ZINC000637608314   -0.0400
      3 C3          3.5088    1.1994   48.7656 C.3     1  ZINC000637608314   -0.1500
      4 C4          2.3121   -0.2516   47.1210 C.3     1  ZINC000637608314   -0.1500
      5 C5          1.0437    0.9548   48.8773 C.2     1  ZINC000637608314    0.1900
      6 C6          0.8173    1.4192   50.1283 C.2     1  ZINC000637608314   -0.2400
      7 C7         -0.3807    2.0860   50.4212 C.2     1  ZINC000637608314    0.0200
      8 C8         -1.3066    2.2579   49.4345 C.2     1  ZINC000637608314   -0.2400
      9 C9         -2.6024    2.9714   49.7222 C.3     1  ZINC000637608314    0.2100
     10 N10        -2.8694    2.9372   51.1622 N.am    1  ZINC000637608314   -0.7300
     11 C11        -4.0959    3.2464   51.6278 C.2     1  ZINC000637608314    0.7100
     12 O12        -4.9802    3.5553   50.8527 O.2     1  ZINC000637608314   -0.5900
     13 N13        -4.3420    3.2134   52.9525 N.am    1  ZINC000637608314   -0.6200
     14 C14        -5.6755    3.5479   53.4583 C.3     1  ZINC000637608314    0.2000
     15 C15        -6.6064    2.3854   53.2278 C.2     1  ZINC000637608314   -0.0400
     16 C16        -7.6678    2.0645   53.9893 C.2     1  ZINC000637608314   -0.1900
     17 C17        -8.2516    0.9127   53.4138 C.2     1  ZINC000637608314   -0.2200
     18 C18        -7.5121    0.5985   52.3349 C.2     1  ZINC000637608314   -0.0300
     19 O19        -6.5204    1.4974   52.2239 O.3     1  ZINC000637608314   -0.1700
     20 C20        -3.2758    2.8431   53.8865 C.3     1  ZINC000637608314    0.1300
     21 C21        -2.4942    4.0948   54.2906 C.3     1  ZINC000637608314    0.0700
     22 H22        -2.0415    4.5485   53.4090 H       1  ZINC000637608314    0.0900
     23 C23        -1.3965    3.7206   55.3094 C.3     1  ZINC000637608314   -0.1500
     24 C24        -1.4397    4.9195   56.2957 C.3     1  ZINC000637608314   -0.1600
     25 C25        -2.9512    5.2595   56.2793 C.3     1  ZINC000637608314    0.0500
     26 O26        -3.3727    5.0331   54.9230 O.3     1  ZINC000637608314   -0.3800
     27 C27        -1.0392    1.7631   48.1465 C.2     1  ZINC000637608314    0.5300
     28 O28        -1.8588    1.9106   47.2541 O.2     1  ZINC000637608314   -0.5400
     29 N29         0.1234    1.1319   47.8951 N.am    1  ZINC000637608314   -0.6000
     30 H30         2.5060   -0.6072   50.5435 H       1  ZINC000637608314    0.0700
     31 H31         1.6534   -1.6409   49.3718 H       1  ZINC000637608314    0.0700
     32 H32         3.4235   -1.4745   49.2888 H       1  ZINC000637608314    0.0700
     33 H33         4.4419    0.6818   48.5432 H       1  ZINC000637608314    0.0700
     34 H34         3.3973    2.0514   48.0949 H       1  ZINC000637608314    0.0600
     35 H35         3.5244    1.5490   49.7979 H       1  ZINC000637608314    0.0700
     36 H36         1.4749   -0.9357   46.9816 H       1  ZINC000637608314    0.0700
     37 H37         2.2005    0.6004   46.4504 H       1  ZINC000637608314    0.0600
     38 H38         3.2452   -0.7692   46.8986 H       1  ZINC000637608314    0.0700
     39 H39         1.5587    1.2760   50.9005 H       1  ZINC000637608314    0.1500
     40 H40        -0.5686    2.4589   51.4173 H       1  ZINC000637608314    0.1400
     41 H41        -2.5280    4.0072   49.3910 H       1  ZINC000637608314    0.0800
     42 H42        -3.4152    2.4772   49.1902 H       1  ZINC000637608314    0.0800
     43 H43        -2.1635    2.6920   51.7807 H       1  ZINC000637608314    0.4000
     44 H44        -5.6166    3.7600   54.5259 H       1  ZINC000637608314    0.1200
     45 H45        -6.0535    4.4255   52.9339 H       1  ZINC000637608314    0.0900
     46 H46        -8.0082    2.5863   54.8715 H       1  ZINC000637608314    0.1500
     47 H47        -9.1238    0.3859   53.7718 H       1  ZINC000637608314    0.1500
     48 H48        -7.6884   -0.2330   51.6688 H       1  ZINC000637608314    0.2000
     49 H49        -3.7130    2.3855   54.7739 H       1  ZINC000637608314    0.0800
     50 H50        -2.6022    2.1334   53.4062 H       1  ZINC000637608314    0.1000
     51 H51        -1.6421    2.7893   55.8199 H       1  ZINC000637608314    0.0800
     52 H52        -0.4231    3.6528   54.8236 H       1  ZINC000637608314    0.0900
     53 H53        -1.1150    4.6202   57.2923 H       1  ZINC000637608314    0.0800
     54 H54        -0.8451    5.7546   55.9251 H       1  ZINC000637608314    0.0800
     55 H55        -3.4940    4.6032   56.9595 H       1  ZINC000637608314    0.0600
     56 H56        -3.1073    6.3028   56.5540 H       1  ZINC000637608314    0.0800
     57 H57         0.3021    0.7930   47.0039 H       1  ZINC000637608314    0.4100
@<TRIPOS>BOND
     1     1     2    1
     2     1    30    1
     3     1    31    1
     4     1    32    1
     5     2     3    1
     6     2     4    1
     7     2     5    1
     8     3    33    1
     9     3    34    1
    10     3    35    1
    11     4    36    1
    12     4    37    1
    13     4    38    1
    14     5    29    1
    15     5     6    2
    16     6     7    1
    17     6    39    1
    18     7     8    2
    19     7    40    1
    20     8     9    1
    21     8    27    1
    22     9    10    1
    23     9    41    1
    24     9    42    1
    25    10    11   am
    26    10    43    1
    27    11    12    2
    28    11    13   am
    29    13    14    1
    30    13    20    1
    31    14    15    1
    32    14    44    1
    33    14    45    1
    34    15    19    1
    35    15    16    2
    36    16    17    1
    37    16    46    1
    38    17    18    2
    39    17    47    1
    40    18    19    1
    41    18    48    1
    42    20    21    1
    43    20    49    1
    44    20    50    1
    45    21    22    1
    46    21    26    1
    47    21    23    1
    48    23    24    1
    49    23    51    1
    50    23    52    1
    51    24    25    1
    52    24    53    1
    53    24    54    1
    54    25    26    1
    55    25    55    1
    56    25    56    1
    57    27    28    2
    58    27    29   am
    59    29    57    1
@<TRIPOS>SUBSTRUCTURE
     1 ZINC000637608314        1 TEMP              0 ****  ****    0 ROOT


##########                                Name:    ZINC000512699033
##########                DOCK_Rotatable_Bonds:                   9
##########                         Heavy_Atoms:                  30
##########                    Molecular_Weight:              405.54
##########                DOCK_Rotatable_Bonds:                   9
##########                       Formal_Charge:           0.0199988
##########                     HBond_Acceptors:                   5
##########                        HBond_Donors:                   2
##########                         Heavy_Atoms:                  30
##########                          Grid_Score:          -32.340416
##########                     Grid_vdw_energy:          -31.789104
##########                      Grid_es_energy:           -0.551312
##########           Internal_energy_repulsive:           14.135983

@<TRIPOS>MOLECULE
ZINC000512699033
 61 64 1 0 0
SMALL
USER_CHARGES


@<TRIPOS>ATOM
      1 O1        -13.5653   -1.4864   55.3117 O.2     1  ZINC000512699033   -0.5100
      2 C2        -12.3997   -1.6764   55.5879 C.2     1  ZINC000512699033    0.5200
      3 C3        -11.3305   -1.4279   54.5555 C.3     1  ZINC000512699033   -0.1500
      4 C4        -11.6177   -0.1116   53.8304 C.3     1  ZINC000512699033    0.1300
      5 N5        -10.4224    0.3131   53.0974 N.am    1  ZINC000512699033   -0.7300
      6 C6        -10.1543    1.6255   52.9483 C.2     1  ZINC000512699033    0.5200
      7 O7        -10.9033    2.4548   53.4193 O.2     1  ZINC000512699033   -0.5300
      8 C8         -8.9237    2.0623   52.1958 C.3     1  ZINC000512699033   -0.1100
      9 C9         -8.3239    3.2966   52.8722 C.3     1  ZINC000512699033   -0.1100
     10 C10        -7.0746    3.7401   52.1082 C.3     1  ZINC000512699033   -0.1200
     11 C11        -6.0464    2.6071   52.1103 C.3     1  ZINC000512699033   -0.1200
     12 C12        -6.6465    1.3727   51.4340 C.3     1  ZINC000512699033   -0.1200
     13 C13        -7.8957    0.9293   52.1979 C.3     1  ZINC000512699033   -0.1000
     14 N14       -12.0602   -2.1045   56.8200 N.am    1  ZINC000512699033   -0.6600
     15 C15       -13.0531   -2.3352   57.7787 C.ar    1  ZINC000512699033    0.1700
     16 C16       -14.0908   -3.2170   57.5074 C.ar    1  ZINC000512699033   -0.1400
     17 C17       -15.0691   -3.4430   58.4561 C.ar    1  ZINC000512699033   -0.1000
     18 C18       -15.0159   -2.7918   59.6746 C.ar    1  ZINC000512699033   -0.1400
     19 C19       -13.9836   -1.9130   59.9480 C.ar    1  ZINC000512699033   -0.0900
     20 C20       -12.9994   -1.6871   59.0059 C.ar    1  ZINC000512699033   -0.1200
     21 C21       -11.8749   -0.7294   59.3046 C.3     1  ZINC000512699033    0.0900
     22 N22       -10.7347   -1.4708   59.8600 N.3     1  ZINC000512699033   -0.4700
     23 C23        -9.6330   -1.5627   58.8774 C.3     1  ZINC000512699033    0.0500
     24 C24        -8.3775   -1.5914   59.7790 C.3     1  ZINC000512699033   -0.0900
     25 C25        -8.8475   -0.8824   61.0334 C.ar    1  ZINC000512699033   -0.1400
     26 C26        -8.1510   -0.3307   62.0878 C.ar    1  ZINC000512699033   -0.0800
     27 C27        -8.8329    0.2753   63.1279 C.ar    1  ZINC000512699033   -0.1400
     28 C28       -10.2145    0.3272   63.1082 C.ar    1  ZINC000512699033   -0.0900
     29 C29       -10.9161   -0.2253   62.0568 C.ar    1  ZINC000512699033   -0.1400
     30 C30       -10.2366   -0.8401   61.0068 C.ar    1  ZINC000512699033    0.0900
     31 H31       -10.3588   -1.3682   55.0457 H       1  ZINC000512699033    0.1100
     32 H32       -11.3243   -2.2458   53.8348 H       1  ZINC000512699033    0.1000
     33 H33       -12.4413   -0.2543   53.1308 H       1  ZINC000512699033    0.0800
     34 H34       -11.8881    0.6529   54.5587 H       1  ZINC000512699033    0.0800
     35 H35        -9.8240   -0.3502   52.7197 H       1  ZINC000512699033    0.4000
     36 H36        -9.1937    2.3061   51.1683 H       1  ZINC000512699033    0.1000
     37 H37        -9.0563    4.1038   52.8707 H       1  ZINC000512699033    0.0700
     38 H38        -8.0539    3.0528   53.8996 H       1  ZINC000512699033    0.0700
     39 H39        -7.3445    3.9840   51.0807 H       1  ZINC000512699033    0.0600
     40 H40        -6.6471    4.6195   52.5900 H       1  ZINC000512699033    0.0700
     41 H41        -5.1565    2.9231   51.5661 H       1  ZINC000512699033    0.0600
     42 H42        -5.7766    2.3632   53.1378 H       1  ZINC000512699033    0.0600
     43 H43        -6.9163    1.6165   50.4065 H       1  ZINC000512699033    0.0600
     44 H44        -5.9139    0.5656   51.4355 H       1  ZINC000512699033    0.0700
     45 H45        -7.6258    0.6855   53.2255 H       1  ZINC000512699033    0.0700
     46 H46        -8.3231    0.0499   51.7161 H       1  ZINC000512699033    0.0700
     47 H47       -11.1278   -2.2526   57.0421 H       1  ZINC000512699033    0.4200
     48 H48       -14.1332   -3.7254   56.5554 H       1  ZINC000512699033    0.1500
     49 H49       -15.8765   -4.1286   58.2456 H       1  ZINC000512699033    0.1300
     50 H50       -15.7823   -2.9696   60.4144 H       1  ZINC000512699033    0.1200
     51 H51       -13.9448   -1.4059   60.9007 H       1  ZINC000512699033    0.1200
     52 H52       -11.5700   -0.2290   58.3855 H       1  ZINC000512699033    0.0600
     53 H53       -12.2124    0.0131   60.0277 H       1  ZINC000512699033    0.0900
     54 H54        -9.7110   -2.4800   58.2937 H       1  ZINC000512699033    0.1000
     55 H55        -9.6216   -0.6886   58.2264 H       1  ZINC000512699033    0.0600
     56 H56        -8.0858   -2.6177   60.0020 H       1  ZINC000512699033    0.0900
     57 H57        -7.5554   -1.0478   59.3133 H       1  ZINC000512699033    0.0800
     58 H58        -7.0720   -0.3719   62.1019 H       1  ZINC000512699033    0.1200
     59 H59        -8.2871    0.7067   63.9539 H       1  ZINC000512699033    0.1300
     60 H60       -10.7464    0.8017   63.9195 H       1  ZINC000512699033    0.1300
     61 H61       -11.9952   -0.1818   62.0475 H       1  ZINC000512699033    0.1200
@<TRIPOS>BOND
     1     1     2    2
     2     2     3    1
     3     2    14   am
     4     3     4    1
     5     3    31    1
     6     3    32    1
     7     4     5    1
     8     4    33    1
     9     4    34    1
    10     5     6   am
    11     5    35    1
    12     6     7    2
    13     6     8    1
    14     8    13    1
    15     8     9    1
    16     8    36    1
    17     9    10    1
    18     9    37    1
    19     9    38    1
    20    10    11    1
    21    10    39    1
    22    10    40    1
    23    11    12    1
    24    11    41    1
    25    11    42    1
    26    12    13    1
    27    12    43    1
    28    12    44    1
    29    13    45    1
    30    13    46    1
    31    14    15    1
    32    14    47    1
    33    15    20   ar
    34    15    16   ar
    35    16    17   ar
    36    16    48    1
    37    17    18   ar
    38    17    49    1
    39    18    19   ar
    40    18    50    1
    41    19    20   ar
    42    19    51    1
    43    20    21    1
    44    21    22    1
    45    21    52    1
    46    21    53    1
    47    22    30    1
    48    22    23    1
    49    23    24    1
    50    23    54    1
    51    23    55    1
    52    24    25    1
    53    24    56    1
    54    24    57    1
    55    25    30   ar
    56    25    26   ar
    57    26    27   ar
    58    26    58    1
    59    27    28   ar
    60    27    59    1
    61    28    29   ar
    62    28    60    1
    63    29    30   ar
    64    29    61    1
@<TRIPOS>SUBSTRUCTURE
     1 ZINC000512699033        1 TEMP              0 ****  ****    0 ROOT


##########                                Name:    ZINC000523863446
##########                DOCK_Rotatable_Bonds:                  10
##########                         Heavy_Atoms:                  29
##########                    Molecular_Weight:             396.533
##########                DOCK_Rotatable_Bonds:                  10
##########                       Formal_Charge:          -0.0200008
##########                     HBond_Acceptors:                   6
##########                        HBond_Donors:                   1
##########                         Heavy_Atoms:                  29
##########                          Grid_Score:          -32.298641
##########                     Grid_vdw_energy:          -31.116791
##########                      Grid_es_energy:           -1.181852
##########           Internal_energy_repulsive:           24.801407

@<TRIPOS>MOLECULE
ZINC000523863446
 61 63 1 0 0
SMALL
USER_CHARGES


@<TRIPOS>ATOM
      1 C1         -2.5508    4.4220   53.9253 C.3     1  ZINC000523863446   -0.1700
      2 C2         -3.5372    3.2575   53.8158 C.3     1  ZINC000523863446    0.1500
      3 H3         -3.1095    2.3735   54.2889 H       1  ZINC000523863446    0.1300
      4 C4         -4.8253    3.6235   54.5070 C.2     1  ZINC000523863446    0.5100
      5 O5         -5.7763    4.0018   53.8562 O.2     1  ZINC000523863446   -0.5100
      6 N6         -4.9205    3.5306   55.8481 N.am    1  ZINC000523863446   -0.6000
      7 C7         -3.7712    3.0755   56.6343 C.3     1  ZINC000523863446    0.0700
      8 C8         -6.1735    3.8849   56.5198 C.3     1  ZINC000523863446    0.1000
      9 C9         -6.9536    2.6313   56.8213 C.2     1  ZINC000523863446    0.5000
     10 O10        -6.9071    1.6898   56.0581 O.2     1  ZINC000523863446   -0.5200
     11 N11        -7.7031    2.5565   57.9388 N.am    1  ZINC000523863446   -0.7200
     12 C12        -8.4602    1.3372   58.2328 C.3     1  ZINC000523863446    0.1900
     13 H13        -7.9926    0.4895   57.7318 H       1  ZINC000523863446    0.1000
     14 C14        -9.8973    1.4960   57.7323 C.3     1  ZINC000523863446   -0.1200
     15 C15       -10.4936    0.1161   57.4474 C.3     1  ZINC000523863446   -0.0900
     16 C16       -11.8754    0.0140   58.0966 C.3     1  ZINC000523863446   -0.1200
     17 C17       -12.4718   -1.3660   57.8117 C.3     1  ZINC000523863446   -0.1200
     18 C18       -12.6026   -1.5630   56.3002 C.3     1  ZINC000523863446   -0.1200
     19 C19       -11.2209   -1.4608   55.6511 C.3     1  ZINC000523863446   -0.1200
     20 C20       -10.6245   -0.0809   55.9358 C.3     1  ZINC000523863446   -0.1100
     21 C21        -8.4700    1.0985   59.7207 C.ar    1  ZINC000523863446   -0.0900
     22 C22        -8.1287   -0.1430   60.2240 C.ar    1  ZINC000523863446   -0.1100
     23 C23        -8.1377   -0.3618   61.5888 C.ar    1  ZINC000523863446   -0.1200
     24 C24        -8.4877    0.6609   62.4505 C.ar    1  ZINC000523863446   -0.1200
     25 C25        -8.8281    1.9026   61.9474 C.ar    1  ZINC000523863446   -0.1200
     26 C26        -8.8149    2.1227   60.5827 C.ar    1  ZINC000523863446   -0.1000
     27 N27        -3.8039    2.9745   52.4034 N.pl3   1  ZINC000523863446   -0.3600
     28 C28        -4.9190    2.3999   51.9057 C.2     1  ZINC000523863446    0.0600
     29 C29        -4.7753    2.3157   50.5628 C.2     1  ZINC000523863446   -0.2700
     30 C30        -3.5298    2.8571   50.2284 C.2     1  ZINC000523863446    0.0500
     31 N31        -2.9493    3.2580   51.3304 N.2     1  ZINC000523863446   -0.2900
     32 H32        -2.9784    5.3060   53.4521 H       1  ZINC000523863446    0.0700
     33 H33        -2.3523    4.6325   54.9761 H       1  ZINC000523863446    0.1000
     34 H34        -1.6191    4.1572   53.4254 H       1  ZINC000523863446    0.0800
     35 H35        -3.1632    3.9340   56.9195 H       1  ZINC000523863446    0.0700
     36 H36        -4.1235    2.5658   57.5311 H       1  ZINC000523863446    0.0800
     37 H37        -3.1720    2.3881   56.0373 H       1  ZINC000523863446    0.0800
     38 H38        -5.9517    4.4074   57.4503 H       1  ZINC000523863446    0.1100
     39 H39        -6.7630    4.5326   55.8709 H       1  ZINC000523863446    0.1100
     40 H40        -7.7414    3.3099   58.5485 H       1  ZINC000523863446    0.4000
     41 H41       -10.4935    1.9995   58.4932 H       1  ZINC000523863446    0.0800
     42 H42        -9.9000    2.0887   56.8175 H       1  ZINC000523863446    0.0700
     43 H43        -9.8411   -0.6538   57.8591 H       1  ZINC000523863446    0.0700
     44 H44       -11.7822    0.1543   59.1734 H       1  ZINC000523863446    0.0600
     45 H45       -12.5280    0.7839   57.6849 H       1  ZINC000523863446    0.0600
     46 H46       -11.8192   -2.1359   58.2234 H       1  ZINC000523863446    0.0600
     47 H47       -13.4562   -1.4388   58.2742 H       1  ZINC000523863446    0.0600
     48 H48       -13.0275   -2.5460   56.0973 H       1  ZINC000523863446    0.0600
     49 H49       -13.2552   -0.7931   55.8885 H       1  ZINC000523863446    0.0600
     50 H50       -10.5682   -2.2307   56.0628 H       1  ZINC000523863446    0.0600
     51 H51       -11.3141   -1.6011   54.5742 H       1  ZINC000523863446    0.0600
     52 H52       -11.2771    0.6889   55.5242 H       1  ZINC000523863446    0.0600
     53 H53        -9.6401   -0.0081   55.4735 H       1  ZINC000523863446    0.0600
     54 H54        -7.8553   -0.9419   59.5507 H       1  ZINC000523863446    0.1200
     55 H55        -7.8718   -1.3319   61.9819 H       1  ZINC000523863446    0.1200
     56 H56        -8.4954    0.4897   63.5168 H       1  ZINC000523863446    0.1200
     57 H57        -9.1018    2.7015   62.6206 H       1  ZINC000523863446    0.1200
     58 H58        -9.0809    3.0928   60.1896 H       1  ZINC000523863446    0.1200
     59 H59        -5.7729    2.0668   52.4768 H       1  ZINC000523863446    0.1700
     60 H60        -5.4948    1.9026   49.8715 H       1  ZINC000523863446    0.1500
     61 H61        -3.1202    2.9356   49.2322 H       1  ZINC000523863446    0.1800
@<TRIPOS>BOND
     1     1     2    1
     2     1    32    1
     3     1    33    1
     4     1    34    1
     5     2     3    1
     6     2     4    1
     7     2    27    1
     8     4     5    2
     9     4     6   am
    10     6     7    1
    11     6     8    1
    12     7    35    1
    13     7    36    1
    14     7    37    1
    15     8     9    1
    16     8    38    1
    17     8    39    1
    18     9    10    2
    19     9    11   am
    20    11    12    1
    21    11    40    1
    22    12    13    1
    23    12    14    1
    24    12    21    1
    25    14    15    1
    26    14    41    1
    27    14    42    1
    28    15    20    1
    29    15    16    1
    30    15    43    1
    31    16    17    1
    32    16    44    1
    33    16    45    1
    34    17    18    1
    35    17    46    1
    36    17    47    1
    37    18    19    1
    38    18    48    1
    39    18    49    1
    40    19    20    1
    41    19    50    1
    42    19    51    1
    43    20    52    1
    44    20    53    1
    45    21    26   ar
    46    21    22   ar
    47    22    23   ar
    48    22    54    1
    49    23    24   ar
    50    23    55    1
    51    24    25   ar
    52    24    56    1
    53    25    26   ar
    54    25    57    1
    55    26    58    1
    56    27    31    1
    57    27    28    1
    58    28    29    2
    59    28    59    1
    60    29    30    1
    61    29    60    1
    62    30    31    2
    63    30    61    1
@<TRIPOS>SUBSTRUCTURE
     1 ZINC000523863446        1 TEMP              0 ****  ****    0 ROOT


##########                                Name:    ZINC001369071670
##########                DOCK_Rotatable_Bonds:                   8
##########                         Heavy_Atoms:                  24
##########                    Molecular_Weight:             335.366
##########                DOCK_Rotatable_Bonds:                   8
##########                       Formal_Charge:        -2.90573e-07
##########                     HBond_Acceptors:                  10
##########                        HBond_Donors:                   1
##########                         Heavy_Atoms:                  24
##########                          Grid_Score:          -32.261383
##########                     Grid_vdw_energy:          -31.173313
##########                      Grid_es_energy:           -1.088071
##########           Internal_energy_repulsive:            7.228410

@<TRIPOS>MOLECULE
ZINC001369071670
 45 47 1 0 0
SMALL
USER_CHARGES


@<TRIPOS>ATOM
      1 C1          1.9408    3.0431   44.7872 C.3     1  ZINC001369071670   -0.0800
      2 C2          1.4926    2.4099   46.0793 C.2     1  ZINC001369071670    0.0000
      3 C3          0.4886    2.8327   46.8811 C.2     1  ZINC001369071670   -0.2300
      4 C4          0.4856    1.8970   47.9483 C.2     1  ZINC001369071670    0.2100
      5 O5         -0.3460    1.8873   49.0207 O.3     1  ZINC001369071670   -0.2600
      6 C6         -1.3440    2.9085   49.0770 C.3     1  ZINC001369071670    0.0400
      7 C7         -2.1956    2.7116   50.3046 C.2     1  ZINC001369071670    0.5200
      8 O8         -1.7355    2.1544   51.2787 O.2     1  ZINC001369071670   -0.5100
      9 N9         -3.4682    3.1549   50.3201 N.am    1  ZINC001369071670   -0.7200
     10 C10        -4.2955    2.9650   51.5142 C.3     1  ZINC001369071670    0.1500
     11 H11        -3.9441    2.0924   52.0648 H       1  ZINC001369071670    0.0900
     12 C12        -4.1962    4.2045   52.4058 C.3     1  ZINC001369071670   -0.1700
     13 C13        -5.7521    2.7522   51.0971 C.3     1  ZINC001369071670   -0.1200
     14 C14        -6.0534    1.3252   50.6045 C.3     1  ZINC001369071670    0.0100
     15 N15        -7.3063    1.4267   51.3849 N.3     1  ZINC001369071670   -0.4800
     16 C16        -7.5750    0.1800   52.1139 C.3     1  ZINC001369071670    0.1000
     17 C17        -9.0621    0.0128   52.2921 C.2     1  ZINC001369071670    0.1900
     18 N18        -9.8916   -0.5570   51.4525 N.2     1  ZINC001369071670   -0.3000
     19 N19       -11.0735   -0.5033   51.9626 N.2     1  ZINC001369071670   -0.0700
     20 N20       -11.0194    0.0861   53.1058 N.2     1  ZINC001369071670   -0.0900
     21 N21        -9.7953    0.4147   53.3469 N.pl3   1  ZINC001369071670   -0.3000
     22 C22        -9.2982    1.1041   54.5401 C.3     1  ZINC001369071670    0.0800
     23 C23        -6.6941    2.4391   52.2735 C.3     1  ZINC001369071670    0.0200
     24 N24         1.4433    1.0468   47.6914 N.2     1  ZINC001369071670   -0.4100
     25 O25         2.0072    1.3142   46.6557 O.3     1  ZINC001369071670    0.1000
     26 H26         2.7691    2.4703   44.3701 H       1  ZINC001369071670    0.0900
     27 H27         1.1118    3.0508   44.0795 H       1  ZINC001369071670    0.1000
     28 H28         2.2659    4.0660   44.9774 H       1  ZINC001369071670    0.1000
     29 H29        -0.1603    3.6847   46.7417 H       1  ZINC001369071670    0.1800
     30 H30        -0.8622    3.8853   49.1218 H       1  ZINC001369071670    0.1000
     31 H31        -1.9711    2.8532   48.1871 H       1  ZINC001369071670    0.1000
     32 H32        -3.8365    3.5995   49.5407 H       1  ZINC001369071670    0.4000
     33 H33        -3.1585    4.3560   52.7029 H       1  ZINC001369071670    0.0600
     34 H34        -4.5476    5.0771   51.8553 H       1  ZINC001369071670    0.0600
     35 H35        -4.8118    4.0633   53.2942 H       1  ZINC001369071670    0.0700
     36 H36        -6.1227    3.5342   50.4343 H       1  ZINC001369071670    0.1100
     37 H37        -6.2108    1.2562   49.5282 H       1  ZINC001369071670    0.1000
     38 H38        -5.3598    0.5744   50.9832 H       1  ZINC001369071670    0.0800
     39 H39        -7.1798   -0.6638   51.5484 H       1  ZINC001369071670    0.1000
     40 H40        -7.0941    0.2197   53.0913 H       1  ZINC001369071670    0.0900
     41 H41        -9.0226    0.3689   55.2963 H       1  ZINC001369071670    0.1000
     42 H42        -8.4243    1.7003   54.2777 H       1  ZINC001369071670    0.1000
     43 H43       -10.0778    1.7560   54.9343 H       1  ZINC001369071670    0.1100
     44 H44        -6.1880    2.0141   53.1402 H       1  ZINC001369071670    0.0800
     45 H45        -7.3634    3.2601   52.5306 H       1  ZINC001369071670    0.1000
@<TRIPOS>BOND
     1     1     2    1
     2     1    26    1
     3     1    27    1
     4     1    28    1
     5     2    25    1
     6     2     3    2
     7     3     4    1
     8     3    29    1
     9     4     5    1
    10     4    24    2
    11     5     6    1
    12     6     7    1
    13     6    30    1
    14     6    31    1
    15     7     8    2
    16     7     9   am
    17     9    10    1
    18     9    32    1
    19    10    11    1
    20    10    12    1
    21    10    13    1
    22    12    33    1
    23    12    34    1
    24    12    35    1
    25    13    23    1
    26    13    14    1
    27    13    36    1
    28    14    15    1
    29    14    37    1
    30    14    38    1
    31    15    16    1
    32    15    23    1
    33    16    17    1
    34    16    39    1
    35    16    40    1
    36    17    21    1
    37    17    18    2
    38    18    19    1
    39    19    20    2
    40    20    21    1
    41    21    22    1
    42    22    41    1
    43    22    42    1
    44    22    43    1
    45    23    44    1
    46    23    45    1
    47    24    25    1
@<TRIPOS>SUBSTRUCTURE
     1 ZINC001369071670        1 TEMP              0 ****  ****    0 ROOT


##########                                Name:    ZINC000506566356
##########                DOCK_Rotatable_Bonds:                  10
##########                         Heavy_Atoms:                  28
##########                    Molecular_Weight:               415.9
##########                DOCK_Rotatable_Bonds:                  10
##########                       Formal_Charge:           0.0199998
##########                     HBond_Acceptors:                   8
##########                        HBond_Donors:                   2
##########                         Heavy_Atoms:                  28
##########                          Grid_Score:          -32.205269
##########                     Grid_vdw_energy:          -31.905584
##########                      Grid_es_energy:           -0.299684
##########           Internal_energy_repulsive:            5.415116

@<TRIPOS>MOLECULE
ZINC000506566356
 46 48 1 0 0
SMALL
USER_CHARGES


@<TRIPOS>ATOM
      1 O1         -8.5399   -2.2482   59.6477 O.2     1  ZINC000506566356   -0.5100
      2 C2         -9.5127   -1.6409   59.2504 C.2     1  ZINC000506566356    0.5100
      3 N3         -9.5026   -0.2934   59.2266 N.am    1  ZINC000506566356   -0.7000
      4 C4         -8.3195    0.4384   59.6859 C.3     1  ZINC000506566356    0.1200
      5 C5         -8.7551    1.7439   60.3544 C.3     1  ZINC000506566356   -0.0900
      6 C6         -9.4484    1.4348   61.6562 C.ar    1  ZINC000506566356   -0.0700
      7 C7        -10.8267    1.3407   61.6996 C.ar    1  ZINC000506566356   -0.1100
      8 C8        -11.4636    1.0566   62.8935 C.ar    1  ZINC000506566356   -0.1000
      9 C9        -10.7223    0.8670   64.0443 C.ar    1  ZINC000506566356   -0.1100
     10 C10        -9.3425    0.9610   64.0014 C.ar    1  ZINC000506566356   -0.0300
     11 Cl11       -8.4106    0.7223   65.4465 Cl      1  ZINC000506566356   -0.0700
     12 C12        -8.7056    1.2396   62.8055 C.ar    1  ZINC000506566356   -0.1000
     13 C13       -10.7187   -2.3869   58.7822 C.2     1  ZINC000506566356    0.5100
     14 O14       -10.6856   -3.5967   58.6887 O.2     1  ZINC000506566356   -0.5000
     15 N15       -11.8439   -1.7170   58.4636 N.am    1  ZINC000506566356   -0.6300
     16 C16       -12.9736   -2.4157   58.0250 C.ar    1  ZINC000506566356    0.1100
     17 C17       -13.9271   -2.8407   58.9390 C.ar    1  ZINC000506566356   -0.0800
     18 C18       -15.0423   -3.5310   58.5030 C.ar    1  ZINC000506566356   -0.1400
     19 C19       -15.2110   -3.7998   57.1574 C.ar    1  ZINC000506566356   -0.0900
     20 C20       -14.2649   -3.3801   56.2403 C.ar    1  ZINC000506566356   -0.1900
     21 C21       -13.1473   -2.6823   56.6677 C.ar    1  ZINC000506566356    0.1200
     22 O22       -12.2163   -2.2689   55.7673 O.3     1  ZINC000506566356   -0.3100
     23 C23       -12.4127   -0.9835   55.1747 C.3     1  ZINC000506566356    0.1400
     24 C24       -11.2510   -0.6650   54.2692 C.2     1  ZINC000506566356    0.0500
     25 C25       -10.1351   -0.0734   54.7057 C.2     1  ZINC000506566356   -0.2300
     26 S26        -9.0461    0.1106   53.3328 S.3     1  ZINC000506566356    0.1400
     27 C27       -10.1997   -0.6263   52.3083 C.2     1  ZINC000506566356    0.0200
     28 N28       -11.2502   -0.9520   52.9830 N.2     1  ZINC000506566356   -0.4700
     29 H29       -10.2786    0.1919   58.9054 H       1  ZINC000506566356    0.4200
     30 H30        -7.7707   -0.1717   60.4033 H       1  ZINC000506566356    0.0800
     31 H31        -7.6778    0.6630   58.8340 H       1  ZINC000506566356    0.0800
     32 H32        -7.8790    2.3631   60.5474 H       1  ZINC000506566356    0.0900
     33 H33        -9.4398    2.2784   59.6960 H       1  ZINC000506566356    0.0900
     34 H34       -11.4065    1.4895   60.8006 H       1  ZINC000506566356    0.1300
     35 H35       -12.5406    0.9833   62.9268 H       1  ZINC000506566356    0.1300
     36 H36       -11.2200    0.6458   64.9769 H       1  ZINC000506566356    0.1300
     37 H37        -7.6286    1.3131   62.7715 H       1  ZINC000506566356    0.1300
     38 H38       -11.8705   -0.7502   58.5384 H       1  ZINC000506566356    0.4300
     39 H39       -13.7978   -2.6323   59.9908 H       1  ZINC000506566356    0.1500
     40 H40       -15.7836   -3.8616   59.2154 H       1  ZINC000506566356    0.1300
     41 H41       -16.0841   -4.3395   56.8215 H       1  ZINC000506566356    0.1300
     42 H42       -14.3996   -3.5925   55.1899 H       1  ZINC000506566356    0.1400
     43 H43       -13.3353   -0.9882   54.5942 H       1  ZINC000506566356    0.0900
     44 H44       -12.4802   -0.2287   55.9582 H       1  ZINC000506566356    0.0900
     45 H45        -9.9358    0.2370   55.7207 H       1  ZINC000506566356    0.1800
     46 H46       -10.0665   -0.7983   51.2504 H       1  ZINC000506566356    0.2100
@<TRIPOS>BOND
     1     1     2    2
     2     2     3   am
     3     2    13    1
     4     3     4    1
     5     3    29    1
     6     4     5    1
     7     4    30    1
     8     4    31    1
     9     5     6    1
    10     5    32    1
    11     5    33    1
    12     6    12   ar
    13     6     7   ar
    14     7     8   ar
    15     7    34    1
    16     8     9   ar
    17     8    35    1
    18     9    10   ar
    19     9    36    1
    20    10    11    1
    21    10    12   ar
    22    12    37    1
    23    13    14    2
    24    13    15   am
    25    15    16    1
    26    15    38    1
    27    16    21   ar
    28    16    17   ar
    29    17    18   ar
    30    17    39    1
    31    18    19   ar
    32    18    40    1
    33    19    20   ar
    34    19    41    1
    35    20    21   ar
    36    20    42    1
    37    21    22    1
    38    22    23    1
    39    23    24    1
    40    23    43    1
    41    23    44    1
    42    24    28    1
    43    24    25    2
    44    25    26    1
    45    25    45    1
    46    26    27    1
    47    27    28    2
    48    27    46    1
@<TRIPOS>SUBSTRUCTURE
     1 ZINC000506566356        1 TEMP              0 ****  ****    0 ROOT


##########                                Name:    ZINC000434204837
##########                DOCK_Rotatable_Bonds:                   7
##########                         Heavy_Atoms:                  29
##########                    Molecular_Weight:             406.511
##########                DOCK_Rotatable_Bonds:                   7
##########                       Formal_Charge:          -0.0200002
##########                     HBond_Acceptors:                   8
##########                        HBond_Donors:                   0
##########                         Heavy_Atoms:                  29
##########                          Grid_Score:          -32.199013
##########                     Grid_vdw_energy:          -32.469696
##########                      Grid_es_energy:            0.270684
##########           Internal_energy_repulsive:           19.454044

@<TRIPOS>MOLECULE
ZINC000434204837
 51 54 1 0 0
SMALL
USER_CHARGES


@<TRIPOS>ATOM
      1 C1         -6.5070    4.7805   52.0581 C.3     1  ZINC000434204837   -0.1300
      2 C2         -5.2657    4.3547   52.7991 C.ar    1  ZINC000434204837   -0.0700
      3 C3         -4.9379    4.9548   54.0002 C.ar    1  ZINC000434204837   -0.1200
      4 C4         -3.7991    4.5641   54.6800 C.ar    1  ZINC000434204837   -0.1100
      5 C5         -2.9888    3.5732   54.1587 C.ar    1  ZINC000434204837   -0.1300
      6 C6         -3.3172    2.9723   52.9576 C.ar    1  ZINC000434204837   -0.0900
      7 C7         -4.4579    3.3598   52.2802 C.ar    1  ZINC000434204837   -0.1000
      8 C8         -4.8159    2.7049   50.9710 C.3     1  ZINC000434204837    0.0100
      9 C9         -5.8629    1.6473   51.2081 C.2     1  ZINC000434204837    0.2000
     10 N10        -7.1069    1.8475   51.5714 N.2     1  ZINC000434204837   -0.4600
     11 C11        -7.6597    0.6246   51.6594 C.2     1  ZINC000434204837    0.1700
     12 C12        -9.0833    0.3149   52.0445 C.3     1  ZINC000434204837   -0.0300
     13 S13        -9.1906    0.1040   53.8390 S.3     1  ZINC000434204837    0.0900
     14 C14       -10.9353   -0.0586   54.0243 C.2     1  ZINC000434204837    0.2100
     15 N15       -11.8360    0.0441   53.0708 N.2     1  ZINC000434204837   -0.3300
     16 N16       -13.0163   -0.1287   53.5464 N.2     1  ZINC000434204837   -0.0200
     17 N17       -12.9618   -0.3505   54.8149 N.2     1  ZINC000434204837   -0.0700
     18 N18       -11.6035   -0.3191   55.1762 N.pl3   1  ZINC000434204837   -0.3100
     19 C19       -11.0572   -0.5083   56.4536 C.ar    1  ZINC000434204837    0.1100
     20 C20       -10.4971    0.5630   57.1362 C.ar    1  ZINC000434204837   -0.1100
     21 C21        -9.9600    0.3737   58.3946 C.ar    1  ZINC000434204837   -0.0900
     22 C22        -9.9796   -0.8815   58.9744 C.ar    1  ZINC000434204837   -0.0600
     23 C23        -9.3929   -1.0847   60.3476 C.3     1  ZINC000434204837   -0.0600
     24 C24        -7.8805   -0.8590   60.2945 C.3     1  ZINC000434204837   -0.1500
     25 C25       -10.0230   -0.0892   61.3238 C.3     1  ZINC000434204837   -0.1500
     26 C26       -10.5368   -1.9505   58.2970 C.ar    1  ZINC000434204837   -0.1000
     27 C27       -11.0803   -1.7661   57.0407 C.ar    1  ZINC000434204837   -0.0900
     28 N28        -6.7408   -0.2409   51.3509 N.2     1  ZINC000434204837   -0.3600
     29 O29        -5.7027    0.3264   51.0829 O.3     1  ZINC000434204837    0.0900
     30 H30        -7.3519    4.1754   52.3868 H       1  ZINC000434204837    0.0800
     31 H31        -6.7107    5.8313   52.2641 H       1  ZINC000434204837    0.0700
     32 H32        -6.3562    4.6428   50.9874 H       1  ZINC000434204837    0.0700
     33 H33        -5.5711    5.7290   54.4076 H       1  ZINC000434204837    0.1300
     34 H34        -3.5426    5.0336   55.6182 H       1  ZINC000434204837    0.1200
     35 H35        -2.0988    3.2685   54.6894 H       1  ZINC000434204837    0.1300
     36 H36        -2.6838    2.1983   52.5501 H       1  ZINC000434204837    0.1300
     37 H37        -5.2067    3.4556   50.2841 H       1  ZINC000434204837    0.1200
     38 H38        -3.9266    2.2454   50.5395 H       1  ZINC000434204837    0.1200
     39 H39        -9.7302    1.1362   51.7360 H       1  ZINC000434204837    0.1300
     40 H40        -9.4016   -0.6034   51.5511 H       1  ZINC000434204837    0.1400
     41 H41       -10.4809    1.5435   56.6835 H       1  ZINC000434204837    0.1400
     42 H42        -9.5243    1.2067   58.9260 H       1  ZINC000434204837    0.1400
     43 H43        -9.5970   -2.1014   60.6831 H       1  ZINC000434204837    0.0800
     44 H44        -7.6764    0.1578   59.9590 H       1  ZINC000434204837    0.0600
     45 H45        -7.4562   -1.0060   61.2877 H       1  ZINC000434204837    0.0600
     46 H46        -7.4315   -1.5682   59.5989 H       1  ZINC000434204837    0.0600
     47 H47       -11.1005   -0.2500   61.3616 H       1  ZINC000434204837    0.0600
     48 H48        -9.5987   -0.2362   62.3170 H       1  ZINC000434204837    0.0600
     49 H49        -9.8189    0.9275   60.9883 H       1  ZINC000434204837    0.0600
     50 H50       -10.5502   -2.9298   58.7523 H       1  ZINC000434204837    0.1400
     51 H51       -11.5154   -2.6014   56.5121 H       1  ZINC000434204837    0.1400
@<TRIPOS>BOND
     1     1     2    1
     2     1    30    1
     3     1    31    1
     4     1    32    1
     5     2     7   ar
     6     2     3   ar
     7     3     4   ar
     8     3    33    1
     9     4     5   ar
    10     4    34    1
    11     5     6   ar
    12     5    35    1
    13     6     7   ar
    14     6    36    1
    15     7     8    1
    16     8     9    1
    17     8    37    1
    18     8    38    1
    19     9    29    1
    20     9    10    2
    21    10    11    1
    22    11    12    1
    23    11    28    2
    24    12    13    1
    25    12    39    1
    26    12    40    1
    27    13    14    1
    28    14    18    1
    29    14    15    2
    30    15    16    1
    31    16    17    2
    32    17    18    1
    33    18    19    1
    34    19    27   ar
    35    19    20   ar
    36    20    21   ar
    37    20    41    1
    38    21    22   ar
    39    21    42    1
    40    22    23    1
    41    22    26   ar
    42    23    24    1
    43    23    25    1
    44    23    43    1
    45    24    44    1
    46    24    45    1
    47    24    46    1
    48    25    47    1
    49    25    48    1
    50    25    49    1
    51    26    27   ar
    52    26    50    1
    53    27    51    1
    54    28    29    1
@<TRIPOS>SUBSTRUCTURE
     1 ZINC000434204837        1 TEMP              0 ****  ****    0 ROOT


##########                                Name:    ZINC001513543414
##########                DOCK_Rotatable_Bonds:                   6
##########                         Heavy_Atoms:                  26
##########                    Molecular_Weight:             364.488
##########                DOCK_Rotatable_Bonds:                   6
##########                       Formal_Charge:         -0.00999974
##########                     HBond_Acceptors:                   7
##########                        HBond_Donors:                   0
##########                         Heavy_Atoms:                  26
##########                          Grid_Score:          -32.195908
##########                     Grid_vdw_energy:          -32.045433
##########                      Grid_es_energy:           -0.150476
##########           Internal_energy_repulsive:           16.274811

@<TRIPOS>MOLECULE
ZINC001513543414
 58 61 1 0 0
SMALL
USER_CHARGES


@<TRIPOS>ATOM
      1 C1        -15.4150   -2.7511   59.2489 C.3     1  ZINC001513543414   -0.1500
      2 C2        -15.7992   -3.7490   58.1546 C.3     1  ZINC001513543414   -0.1200
      3 C3        -14.8953   -3.5442   56.9374 C.3     1  ZINC001513543414    0.1100
      4 C4        -15.0750   -4.7047   55.9566 C.3     1  ZINC001513543414   -0.1500
      5 C5        -15.2455   -2.2105   56.2434 C.3     1  ZINC001513543414   -0.1500
      6 C6        -13.8459   -1.6708   55.8411 C.3     1  ZINC001513543414   -0.1500
      7 C7        -12.9830   -2.1817   57.0222 C.3     1  ZINC001513543414    0.0700
      8 H8        -13.0660   -1.5043   57.8722 H       1  ZINC001513543414    0.0800
      9 C9        -11.5207   -2.3163   56.5924 C.3     1  ZINC001513543414    0.1100
     10 N10       -10.8878   -0.9951   56.5934 N.pl3   1  ZINC001513543414   -0.4600
     11 C11       -10.5999   -0.2169   55.5065 C.2     1  ZINC001513543414    0.1900
     12 C12       -10.8760   -0.5586   54.0650 C.3     1  ZINC001513543414    0.1800
     13 H13       -11.3736   -1.5258   53.9948 H       1  ZINC001513543414    0.1000
     14 C14       -11.7457    0.5428   53.4083 C.3     1  ZINC001513543414   -0.1500
     15 C15       -11.3679    0.3640   51.9125 C.3     1  ZINC001513543414   -0.1500
     16 C16        -9.8832   -0.0507   51.9969 C.3     1  ZINC001513543414    0.0500
     17 O17        -9.6524   -0.5716   53.3126 O.3     1  ZINC001513543414   -0.3500
     18 N18       -10.0433    0.8752   55.9484 N.2     1  ZINC001513543414   -0.2600
     19 N19        -9.9606    0.8403   57.2305 N.2     1  ZINC001513543414   -0.3100
     20 C20       -10.4689   -0.2831   57.6795 C.2     1  ZINC001513543414    0.3400
     21 N21       -10.5558   -0.6761   59.0056 N.3     1  ZINC001513543414   -0.4500
     22 C22       -11.2809    0.3304   59.8099 C.3     1  ZINC001513543414    0.0500
     23 C23       -10.6080    0.2819   61.2044 C.3     1  ZINC001513543414   -0.1500
     24 C24        -9.1211    0.0506   60.8269 C.3     1  ZINC001513543414    0.0700
     25 H25        -8.6370    0.9934   60.5721 H       1  ZINC001513543414    0.0800
     26 O26        -8.4251   -0.6013   61.8912 O.3     1  ZINC001513543414   -0.3800
     27 C27        -8.4761    0.1007   63.1349 C.3     1  ZINC001513543414    0.0300
     28 C28        -9.2153   -0.8663   59.5892 C.3     1  ZINC001513543414    0.0600
     29 O29       -13.5272   -3.4686   57.3553 O.3     1  ZINC001513543414   -0.3600
     30 H30       -16.0590   -2.8971   60.1161 H       1  ZINC001513543414    0.0500
     31 H31       -14.3760   -2.9103   59.5372 H       1  ZINC001513543414    0.0500
     32 H32       -15.5363   -1.7352   58.8731 H       1  ZINC001513543414    0.0600
     33 H33       -15.6780   -4.7649   58.5304 H       1  ZINC001513543414    0.0700
     34 H34       -16.8383   -3.5899   57.8664 H       1  ZINC001513543414    0.0600
     35 H35       -16.1114   -4.7394   55.6208 H       1  ZINC001513543414    0.0700
     36 H36       -14.4195   -4.5594   55.0978 H       1  ZINC001513543414    0.0600
     37 H37       -14.8221   -5.6418   56.4523 H       1  ZINC001513543414    0.0700
     38 H38       -15.8631   -2.3822   55.3618 H       1  ZINC001513543414    0.0900
     39 H39       -15.7388   -1.5299   56.9374 H       1  ZINC001513543414    0.0800
     40 H40       -13.5148   -2.1031   54.8968 H       1  ZINC001513543414    0.0800
     41 H41       -13.8432   -0.5817   55.7947 H       1  ZINC001513543414    0.0900
     42 H42       -10.9963   -2.9709   57.2884 H       1  ZINC001513543414    0.1000
     43 H43       -11.4745   -2.7405   55.5894 H       1  ZINC001513543414    0.1100
     44 H44       -12.8070    0.3542   53.5707 H       1  ZINC001513543414    0.0900
     45 H45       -11.4648    1.5323   53.7688 H       1  ZINC001513543414    0.0900
     46 H46       -11.9652   -0.4237   51.4530 H       1  ZINC001513543414    0.0800
     47 H47       -11.4783    1.3027   51.3696 H       1  ZINC001513543414    0.0900
     48 H48        -9.6712   -0.8194   51.2539 H       1  ZINC001513543414    0.0700
     49 H49        -9.2467    0.8172   51.8248 H       1  ZINC001513543414    0.0700
     50 H50       -11.1691    1.3209   59.3689 H       1  ZINC001513543414    0.0600
     51 H51       -12.3354    0.0657   59.8881 H       1  ZINC001513543414    0.0900
     52 H52       -10.7343    1.2273   61.7320 H       1  ZINC001513543414    0.0800
     53 H53       -10.9943   -0.5482   61.7957 H       1  ZINC001513543414    0.0900
     54 H54        -7.9249   -0.4588   63.8907 H       1  ZINC001513543414    0.0900
     55 H55        -8.0280    1.0869   63.0140 H       1  ZINC001513543414    0.0400
     56 H56        -9.5144    0.2093   63.4484 H       1  ZINC001513543414    0.0400
     57 H57        -9.0849   -1.9066   59.8877 H       1  ZINC001513543414    0.1000
     58 H58        -8.4516   -0.5882   58.8628 H       1  ZINC001513543414    0.0900
@<TRIPOS>BOND
     1     1     2    1
     2     1    30    1
     3     1    31    1
     4     1    32    1
     5     2     3    1
     6     2    33    1
     7     2    34    1
     8     3    29    1
     9     3     4    1
    10     3     5    1
    11     4    35    1
    12     4    36    1
    13     4    37    1
    14     5     6    1
    15     5    38    1
    16     5    39    1
    17     6     7    1
    18     6    40    1
    19     6    41    1
    20     7     8    1
    21     7     9    1
    22     7    29    1
    23     9    10    1
    24     9    42    1
    25     9    43    1
    26    10    20    1
    27    10    11    1
    28    11    12    1
    29    11    18    2
    30    12    13    1
    31    12    17    1
    32    12    14    1
    33    14    15    1
    34    14    44    1
    35    14    45    1
    36    15    16    1
    37    15    46    1
    38    15    47    1
    39    16    17    1
    40    16    48    1
    41    16    49    1
    42    18    19    1
    43    19    20    2
    44    20    21    1
    45    21    28    1
    46    21    22    1
    47    22    23    1
    48    22    50    1
    49    22    51    1
    50    23    24    1
    51    23    52    1
    52    23    53    1
    53    24    25    1
    54    24    26    1
    55    24    28    1
    56    26    27    1
    57    27    54    1
    58    27    55    1
    59    27    56    1
    60    28    57    1
    61    28    58    1
@<TRIPOS>SUBSTRUCTURE
     1 ZINC001513543414        1 TEMP              0 ****  ****    0 ROOT


##########                                Name:    ZINC000572257265
##########                DOCK_Rotatable_Bonds:                  11
##########                         Heavy_Atoms:                  24
##########                    Molecular_Weight:             393.509
##########                DOCK_Rotatable_Bonds:                  11
##########                       Formal_Charge:          -0.0100002
##########                     HBond_Acceptors:                  11
##########                        HBond_Donors:                   3
##########                         Heavy_Atoms:                  24
##########                          Grid_Score:          -32.173939
##########                     Grid_vdw_energy:          -31.373257
##########                      Grid_es_energy:           -0.800684
##########           Internal_energy_repulsive:           40.439445

@<TRIPOS>MOLECULE
ZINC000572257265
 43 43 1 0 0
SMALL
USER_CHARGES


@<TRIPOS>ATOM
      1 C1        -16.1567   -5.3038   54.8806 C.3     1  ZINC000572257265   -0.1300
      2 S2        -16.6385   -3.5607   54.7385 S.3     1  ZINC000572257265   -0.2200
      3 C3        -15.5023   -2.7288   55.8819 C.3     1  ZINC000572257265   -0.1300
      4 C4        -15.7032   -3.2829   57.2938 C.3     1  ZINC000572257265    0.1500
      5 C5        -17.1465   -3.0366   57.7378 C.3     1  ZINC000572257265   -0.1500
      6 O6        -15.4370   -4.6869   57.2967 O.3     1  ZINC000572257265   -0.5400
      7 C7        -14.7458   -2.5803   58.2585 C.3     1  ZINC000572257265    0.0900
      8 N8        -14.9390   -3.1100   59.6106 N.am    1  ZINC000572257265   -1.1100
      9 S9        -14.7187   -2.1264   60.9245 S.o2    1  ZINC000572257265    2.6900
     10 O10       -15.5368   -0.9841   60.7124 O.2     1  ZINC000572257265   -0.9400
     11 O11       -14.8278   -2.9584   62.0713 O.2     1  ZINC000572257265   -0.9500
     12 C12       -13.0510   -1.5597   60.8778 C.ar    1  ZINC000572257265   -0.6300
     13 C13       -12.0422   -2.4128   60.4713 C.ar    1  ZINC000572257265   -0.0400
     14 C14       -10.7338   -1.9682   60.4347 C.ar    1  ZINC000572257265   -0.0400
     15 C15       -10.4343   -0.6702   60.8043 C.ar    1  ZINC000572257265   -0.6300
     16 S16        -8.7665   -0.1037   60.7583 S.o2    1  ZINC000572257265    2.7000
     17 O17        -8.0425   -1.0503   59.9842 O.2     1  ZINC000572257265   -0.9400
     18 O18        -8.8214    1.2804   60.4412 O.2     1  ZINC000572257265   -0.9400
     19 N19        -8.1710   -0.2071   62.3000 N.am    1  ZINC000572257265   -1.1200
     20 C20        -8.8079    0.5459   63.3833 C.3     1  ZINC000572257265    0.2200
     21 C21        -8.3480    0.0234   64.6804 C.1     1  ZINC000572257265    0.1900
     22 N22        -7.9932   -0.3798   65.6814 N.1     1  ZINC000572257265   -0.3900
     23 C23       -11.4433    0.1833   61.2097 C.ar    1  ZINC000572257265   -0.0400
     24 C24       -12.7522   -0.2602   61.2426 C.ar    1  ZINC000572257265   -0.0400
     25 H25       -16.2844   -5.6332   55.9118 H       1  ZINC000572257265    0.0800
     26 H26       -16.7839   -5.9087   54.2257 H       1  ZINC000572257265    0.1000
     27 H27       -15.1123   -5.4171   54.5897 H       1  ZINC000572257265    0.0800
     28 H28       -14.4744   -2.9052   55.5652 H       1  ZINC000572257265    0.0900
     29 H29       -15.7044   -1.6577   55.8798 H       1  ZINC000572257265    0.0900
     30 H30       -17.8285   -3.5372   57.0506 H       1  ZINC000572257265    0.0800
     31 H31       -17.2896   -3.4313   58.7437 H       1  ZINC000572257265    0.0700
     32 H32       -17.3495   -1.9656   57.7356 H       1  ZINC000572257265    0.0800
     33 H33       -16.0082   -5.1968   56.7062 H       1  ZINC000572257265    0.3800
     34 H34       -13.7176   -2.7566   57.9427 H       1  ZINC000572257265    0.0900
     35 H35       -14.9482   -1.5093   58.2555 H       1  ZINC000572257265    0.0800
     36 H36       -15.1961   -4.0369   59.7363 H       1  ZINC000572257265    0.4300
     37 H37       -12.2762   -3.4268   60.1825 H       1  ZINC000572257265    0.1500
     38 H38        -9.9456   -2.6349   60.1178 H       1  ZINC000572257265    0.1500
     39 H39        -7.4004   -0.7662   62.4858 H       1  ZINC000572257265    0.4300
     40 H40        -8.5398    1.5992   63.3002 H       1  ZINC000572257265    0.1100
     41 H41        -9.8903    0.4398   63.3120 H       1  ZINC000572257265    0.1300
     42 H42       -11.2093    1.1975   61.4980 H       1  ZINC000572257265    0.1600
     43 H43       -13.5405    0.4067   61.5592 H       1  ZINC000572257265    0.1500
@<TRIPOS>BOND
     1     1     2    1
     2     1    25    1
     3     1    26    1
     4     1    27    1
     5     2     3    1
     6     3     4    1
     7     3    28    1
     8     3    29    1
     9     4     5    1
    10     4     6    1
    11     4     7    1
    12     5    30    1
    13     5    31    1
    14     5    32    1
    15     6    33    1
    16     7     8    1
    17     7    34    1
    18     7    35    1
    19     8     9   am
    20     8    36    1
    21     9    10    2
    22     9    11    2
    23     9    12    1
    24    12    24   ar
    25    12    13   ar
    26    13    14   ar
    27    13    37    1
    28    14    15   ar
    29    14    38    1
    30    15    16    1
    31    15    23   ar
    32    16    17    2
    33    16    18    2
    34    16    19   am
    35    19    20    1
    36    19    39    1
    37    20    21    1
    38    20    40    1
    39    20    41    1
    40    21    22    3
    41    23    24   ar
    42    23    42    1
    43    24    43    1
@<TRIPOS>SUBSTRUCTURE
     1 ZINC000572257265        1 TEMP              0 ****  ****    0 ROOT


##########                                Name:    ZINC000465392830
##########                DOCK_Rotatable_Bonds:                   8
##########                         Heavy_Atoms:                  29
##########                    Molecular_Weight:             419.588
##########                DOCK_Rotatable_Bonds:                   8
##########                       Formal_Charge:           0.0199996
##########                     HBond_Acceptors:                   7
##########                        HBond_Donors:                   0
##########                         Heavy_Atoms:                  29
##########                          Grid_Score:          -32.141903
##########                     Grid_vdw_energy:          -30.637049
##########                      Grid_es_energy:           -1.504855
##########           Internal_energy_repulsive:           49.819241

@<TRIPOS>MOLECULE
ZINC000465392830
 62 64 1 0 0
SMALL
USER_CHARGES


@<TRIPOS>ATOM
      1 C1         -8.6233    2.4047   57.8679 C.3     1  ZINC000465392830    0.0400
      2 O2         -8.9287    1.9385   59.2087 O.3     1  ZINC000465392830   -0.3600
      3 C3         -8.2565    0.8628   59.6478 C.2     1  ZINC000465392830    0.4600
      4 O4         -7.4393    0.3290   58.9356 O.2     1  ZINC000465392830   -0.4900
      5 C5         -8.5212    0.3209   61.0288 C.3     1  ZINC000465392830    0.1500
      6 H6         -7.6831   -0.2968   61.3514 H       1  ZINC000465392830    0.1100
      7 C7         -8.7263    1.4862   62.0195 C.3     1  ZINC000465392830   -0.1100
      8 C8         -9.8586    0.9627   62.9422 C.3     1  ZINC000465392830   -0.0900
      9 H9         -9.4585    0.3156   63.7229 H       1  ZINC000465392830    0.1000
     10 C10       -10.6523    2.1219   63.5482 C.3     1  ZINC000465392830   -0.0800
     11 C11       -11.2785    2.9527   62.4264 C.3     1  ZINC000465392830   -0.1200
     12 C12       -12.0721    4.1119   63.0324 C.3     1  ZINC000465392830   -0.1200
     13 C13       -13.1770    3.5574   63.9340 C.3     1  ZINC000465392830   -0.1200
     14 C14       -12.5508    2.7265   65.0557 C.3     1  ZINC000465392830   -0.1200
     15 C15       -11.7571    1.5673   64.4497 C.3     1  ZINC000465392830   -0.1200
     16 C16       -10.7262    0.1568   61.9435 C.3     1  ZINC000465392830    0.1000
     17 N17        -9.7570   -0.4757   61.0250 N.am    1  ZINC000465392830   -0.6100
     18 C18        -9.9728   -1.5932   60.3031 C.2     1  ZINC000465392830    0.5400
     19 O19        -9.1026   -2.0229   59.5759 O.2     1  ZINC000465392830   -0.5300
     20 C20       -11.2956   -2.3088   60.3999 C.3     1  ZINC000465392830   -0.1300
     21 C21       -12.3877   -1.4511   59.7574 C.3     1  ZINC000465392830   -0.0600
     22 C22       -13.2832   -2.3246   58.9171 C.ar    1  ZINC000465392830   -0.2000
     23 C23       -14.3943   -2.9407   59.4719 C.ar    1  ZINC000465392830    0.2000
     24 C24       -14.7263   -2.7458   60.9289 C.3     1  ZINC000465392830   -0.1100
     25 N25       -15.1596   -3.7011   58.7069 N.ar    1  ZINC000465392830   -0.5000
     26 C26       -14.8741   -3.8768   57.4245 C.ar    1  ZINC000465392830    0.3000
     27 S27       -15.9211   -4.8982   56.4420 S.3     1  ZINC000465392830    0.0000
     28 C28       -15.2306   -4.5701   54.8014 C.3     1  ZINC000465392830   -0.1400
     29 N29       -13.8197   -3.3016   56.8635 N.ar    1  ZINC000465392830   -0.5300
     30 C30       -13.0168   -2.5249   57.5716 C.ar    1  ZINC000465392830    0.2000
     31 C31       -11.8202   -1.8749   56.9261 C.3     1  ZINC000465392830   -0.1100
     32 H32        -7.5688    2.6739   57.8082 H       1  ZINC000465392830    0.0600
     33 H33        -8.8373    1.6126   57.1503 H       1  ZINC000465392830    0.0600
     34 H34        -9.2346    3.2776   57.6387 H       1  ZINC000465392830    0.1000
     35 H35        -7.8170    1.6707   62.5915 H       1  ZINC000465392830    0.1000
     36 H36        -9.0425    2.3876   61.4945 H       1  ZINC000465392830    0.0800
     37 H37        -9.9845    2.7509   64.1369 H       1  ZINC000465392830    0.0800
     38 H38       -10.4914    3.3478   61.7841 H       1  ZINC000465392830    0.0600
     39 H39       -11.9463    2.3238   61.8377 H       1  ZINC000465392830    0.0700
     40 H40       -11.4043    4.7410   63.6211 H       1  ZINC000465392830    0.0600
     41 H41       -12.5183    4.7039   62.2332 H       1  ZINC000465392830    0.0600
     42 H42       -13.7423    4.3832   64.3657 H       1  ZINC000465392830    0.0600
     43 H43       -13.8447    2.9284   63.3452 H       1  ZINC000465392830    0.0600
     44 H44       -11.8830    3.3555   65.6444 H       1  ZINC000465392830    0.0600
     45 H45       -13.3378    2.3314   65.6980 H       1  ZINC000465392830    0.0600
     46 H46       -12.4249    0.9383   63.8611 H       1  ZINC000465392830    0.0700
     47 H47       -11.3110    0.9754   65.2490 H       1  ZINC000465392830    0.0600
     48 H48       -11.3012   -0.6052   62.4694 H       1  ZINC000465392830    0.0900
     49 H49       -11.3911    0.8238   61.3946 H       1  ZINC000465392830    0.0800
     50 H50       -11.2307   -3.2643   59.8792 H       1  ZINC000465392830    0.1000
     51 H51       -11.5392   -2.4820   61.4480 H       1  ZINC000465392830    0.1000
     52 H52       -12.9776   -0.9698   60.5374 H       1  ZINC000465392830    0.0900
     53 H53       -11.9280   -0.6895   59.1274 H       1  ZINC000465392830    0.0900
     54 H54       -15.3798   -1.8807   61.0400 H       1  ZINC000465392830    0.0900
     55 H55       -15.2316   -3.6340   61.3083 H       1  ZINC000465392830    0.0900
     56 H56       -13.8076   -2.5820   61.4921 H       1  ZINC000465392830    0.0900
     57 H57       -15.3137   -3.5063   54.5784 H       1  ZINC000465392830    0.0900
     58 H58       -14.1813   -4.8642   54.7833 H       1  ZINC000465392830    0.0900
     59 H59       -15.7813   -5.1420   54.0545 H       1  ZINC000465392830    0.1100
     60 H60       -12.1065   -0.9019   56.5269 H       1  ZINC000465392830    0.0900
     61 H61       -11.0326   -1.7456   57.6684 H       1  ZINC000465392830    0.0900
     62 H62       -11.4560   -2.5071   56.1163 H       1  ZINC000465392830    0.0800
@<TRIPOS>BOND
     1     1     2    1
     2     1    32    1
     3     1    33    1
     4     1    34    1
     5     2     3    1
     6     3     4    2
     7     3     5    1
     8     5     6    1
     9     5    17    1
    10     5     7    1
    11     7     8    1
    12     7    35    1
    13     7    36    1
    14     8     9    1
    15     8    10    1
    16     8    16    1
    17    10    15    1
    18    10    11    1
    19    10    37    1
    20    11    12    1
    21    11    38    1
    22    11    39    1
    23    12    13    1
    24    12    40    1
    25    12    41    1
    26    13    14    1
    27    13    42    1
    28    13    43    1
    29    14    15    1
    30    14    44    1
    31    14    45    1
    32    15    46    1
    33    15    47    1
    34    16    17    1
    35    16    48    1
    36    16    49    1
    37    17    18   am
    38    18    19    2
    39    18    20    1
    40    20    21    1
    41    20    50    1
    42    20    51    1
    43    21    22    1
    44    21    52    1
    45    21    53    1
    46    22    30   ar
    47    22    23   ar
    48    23    24    1
    49    23    25   ar
    50    24    54    1
    51    24    55    1
    52    24    56    1
    53    25    26   ar
    54    26    27    1
    55    26    29   ar
    56    27    28    1
    57    28    57    1
    58    28    58    1
    59    28    59    1
    60    29    30   ar
    61    30    31    1
    62    31    60    1
    63    31    61    1
    64    31    62    1
@<TRIPOS>SUBSTRUCTURE
     1 ZINC000465392830        1 TEMP              0 ****  ****    0 ROOT


##########                                Name:    ZINC000859496582
##########                DOCK_Rotatable_Bonds:                  10
##########                         Heavy_Atoms:                  26
##########                    Molecular_Weight:             361.438
##########                DOCK_Rotatable_Bonds:                  10
##########                       Formal_Charge:           0.0100006
##########                     HBond_Acceptors:                   6
##########                        HBond_Donors:                   0
##########                         Heavy_Atoms:                  26
##########                          Grid_Score:          -32.139595
##########                     Grid_vdw_energy:          -29.738571
##########                      Grid_es_energy:           -2.401026
##########           Internal_energy_repulsive:           19.181919

@<TRIPOS>MOLECULE
ZINC000859496582
 53 54 1 0 0
SMALL
USER_CHARGES


@<TRIPOS>ATOM
      1 C1         -6.2632    1.8167   65.1426 C.3     1  ZINC000859496582    0.0300
      2 O2         -7.2757    0.9203   65.6713 O.3     1  ZINC000859496582   -0.3600
      3 C3         -8.0754    0.3118   64.7815 C.2     1  ZINC000859496582    0.4600
      4 O4         -8.9364   -0.4457   65.1619 O.2     1  ZINC000859496582   -0.5100
      5 C5         -7.8993    0.5733   63.3078 C.3     1  ZINC000859496582   -0.1100
      6 C6         -9.2485    0.4325   62.6001 C.3     1  ZINC000859496582   -0.1100
      7 C7         -9.0698    0.6986   61.1040 C.3     1  ZINC000859496582   -0.1200
      8 C8         -8.3295   -0.4764   60.4618 C.3     1  ZINC000859496582    0.0700
      9 O9         -9.1171   -1.6866   60.6152 O.3     1  ZINC000859496582   -0.3500
     10 C10        -9.6192   -2.2326   59.4965 C.2     1  ZINC000859496582    0.4700
     11 O11        -8.9747   -3.0479   58.8803 O.2     1  ZINC000859496582   -0.5000
     12 C12       -10.9869   -1.8286   59.0091 C.3     1  ZINC000859496582   -0.1000
     13 H13       -11.1090   -0.7512   59.1199 H       1  ZINC000859496582    0.1200
     14 C14       -12.0562   -2.5511   59.8317 C.3     1  ZINC000859496582   -0.1100
     15 C15       -13.4456   -2.1166   59.3595 C.3     1  ZINC000859496582   -0.1300
     16 C16       -13.6243   -2.5033   57.8880 C.3     1  ZINC000859496582    0.1100
     17 N17       -12.5165   -1.9311   57.1108 N.am    1  ZINC000859496582   -0.6100
     18 C18       -12.7605   -1.1632   56.0304 C.2     1  ZINC000859496582    0.5700
     19 O19       -13.9056   -0.9383   55.6906 O.2     1  ZINC000859496582   -0.5300
     20 C20       -11.6351   -0.5945   55.2584 C.ar    1  ZINC000859496582   -0.1400
     21 C21       -11.0368   -1.3384   54.2401 C.ar    1  ZINC000859496582   -0.0900
     22 C22        -9.9874   -0.8016   53.5233 C.ar    1  ZINC000859496582   -0.1200
     23 C23        -9.5275    0.4710   53.8122 C.ar    1  ZINC000859496582   -0.0600
     24 C24        -8.3805    1.0507   53.0253 C.3     1  ZINC000859496582   -0.1200
     25 C25       -10.1165    1.2138   54.8200 C.ar    1  ZINC000859496582   -0.1200
     26 C26       -11.1701    0.6908   55.5408 C.ar    1  ZINC000859496582   -0.0600
     27 C27       -11.1375   -2.2113   57.5335 C.3     1  ZINC000859496582    0.1100
     28 H28        -6.7445    2.6197   64.5845 H       1  ZINC000859496582    0.0600
     29 H29        -5.6876    2.2405   65.9656 H       1  ZINC000859496582    0.1000
     30 H30        -5.5972    1.2629   64.4810 H       1  ZINC000859496582    0.0600
     31 H31        -7.5158    1.5830   63.1613 H       1  ZINC000859496582    0.1100
     32 H32        -7.1943   -0.1469   62.8926 H       1  ZINC000859496582    0.1100
     33 H33        -9.6318   -0.5773   62.7463 H       1  ZINC000859496582    0.0800
     34 H34        -9.9536    1.1525   63.0154 H       1  ZINC000859496582    0.0800
     35 H35       -10.0475    0.8117   60.6357 H       1  ZINC000859496582    0.0800
     36 H36        -8.4920    1.6123   60.9640 H       1  ZINC000859496582    0.0800
     37 H37        -8.1770   -0.2741   59.4017 H       1  ZINC000859496582    0.0700
     38 H38        -7.3635   -0.6072   60.9494 H       1  ZINC000859496582    0.0700
     39 H39       -11.9486   -3.6280   59.7015 H       1  ZINC000859496582    0.0800
     40 H40       -11.9356   -2.2992   60.8854 H       1  ZINC000859496582    0.0800
     41 H41       -14.2063   -2.6137   59.9614 H       1  ZINC000859496582    0.0900
     42 H42       -13.5449   -1.0365   59.4665 H       1  ZINC000859496582    0.0700
     43 H43       -13.6157   -3.5890   57.7919 H       1  ZINC000859496582    0.0700
     44 H44       -14.5713   -2.1092   57.5191 H       1  ZINC000859496582    0.1000
     45 H45       -11.3943   -2.3321   54.0141 H       1  ZINC000859496582    0.1300
     46 H46        -9.5235   -1.3761   52.7352 H       1  ZINC000859496582    0.1300
     47 H47        -8.7681    1.5843   52.1576 H       1  ZINC000859496582    0.0800
     48 H48        -7.8195    1.7407   53.6555 H       1  ZINC000859496582    0.0700
     49 H49        -7.7240    0.2461   52.6937 H       1  ZINC000859496582    0.0700
     50 H50        -9.7530    2.2066   55.0402 H       1  ZINC000859496582    0.1300
     51 H51       -11.6292    1.2719   56.3271 H       1  ZINC000859496582    0.1300
     52 H52       -10.4442   -1.6249   56.9305 H       1  ZINC000859496582    0.1100
     53 H53       -10.9256   -3.2732   57.4087 H       1  ZINC000859496582    0.0800
@<TRIPOS>BOND
     1     1     2    1
     2     1    28    1
     3     1    29    1
     4     1    30    1
     5     2     3    1
     6     3     4    2
     7     3     5    1
     8     5     6    1
     9     5    31    1
    10     5    32    1
    11     6     7    1
    12     6    33    1
    13     6    34    1
    14     7     8    1
    15     7    35    1
    16     7    36    1
    17     8     9    1
    18     8    37    1
    19     8    38    1
    20     9    10    1
    21    10    11    2
    22    10    12    1
    23    12    13    1
    24    12    27    1
    25    12    14    1
    26    14    15    1
    27    14    39    1
    28    14    40    1
    29    15    16    1
    30    15    41    1
    31    15    42    1
    32    16    17    1
    33    16    43    1
    34    16    44    1
    35    17    18   am
    36    17    27    1
    37    18    19    2
    38    18    20    1
    39    20    26   ar
    40    20    21   ar
    41    21    22   ar
    42    21    45    1
    43    22    23   ar
    44    22    46    1
    45    23    24    1
    46    23    25   ar
    47    24    47    1
    48    24    48    1
    49    24    49    1
    50    25    26   ar
    51    25    50    1
    52    26    51    1
    53    27    52    1
    54    27    53    1
@<TRIPOS>SUBSTRUCTURE
     1 ZINC000859496582        1 TEMP              0 ****  ****    0 ROOT


##########                                Name:    ZINC000011620562
##########                DOCK_Rotatable_Bonds:                   9
##########                         Heavy_Atoms:                  29
##########                    Molecular_Weight:             417.448
##########                DOCK_Rotatable_Bonds:                   9
##########                       Formal_Charge:           0.0299999
##########                     HBond_Acceptors:                  12
##########                        HBond_Donors:                   1
##########                         Heavy_Atoms:                  29
##########                          Grid_Score:          -32.127308
##########                     Grid_vdw_energy:          -31.729124
##########                      Grid_es_energy:           -0.398182
##########           Internal_energy_repulsive:            8.580858

@<TRIPOS>MOLECULE
ZINC000011620562
 48 50 1 0 0
SMALL
USER_CHARGES


@<TRIPOS>ATOM
      1 C1        -15.4045   -3.8638   55.1562 C.3     1  ZINC000011620562    0.0400
      2 O2        -15.5972   -3.3820   56.5123 O.3     1  ZINC000011620562   -0.3500
      3 C3        -15.9289   -4.2925   57.4412 C.2     1  ZINC000011620562    0.4600
      4 O4        -16.0548   -5.4535   57.1312 O.2     1  ZINC000011620562   -0.5000
      5 C5        -16.1440   -3.8667   58.8706 C.3     1  ZINC000011620562    0.1300
      6 N6        -15.3344   -2.6789   59.1534 N.am    1  ZINC000011620562   -0.7200
      7 C7        -14.8333   -2.4835   60.3893 C.2     1  ZINC000011620562    0.5400
      8 O8        -15.0514   -3.2917   61.2668 O.2     1  ZINC000011620562   -0.5200
      9 C9        -14.0021   -1.2607   60.6806 C.3     1  ZINC000011620562   -0.1600
     10 S10       -13.2453   -0.6665   59.1476 S.3     1  ZINC000011620562    0.1400
     11 C11       -12.0835   -1.9594   58.8588 C.2     1  ZINC000011620562    0.2100
     12 N12       -11.8852   -3.0166   59.6168 N.2     1  ZINC000011620562   -0.3400
     13 N13       -10.9657   -3.7615   59.1181 N.2     1  ZINC000011620562   -0.0300
     14 N14       -10.5152   -3.2475   58.0252 N.2     1  ZINC000011620562   -0.0800
     15 N15       -11.2293   -2.0556   57.8107 N.pl3   1  ZINC000011620562   -0.2600
     16 C16       -11.0836   -1.1522   56.7405 C.2     1  ZINC000011620562   -0.1300
     17 C17       -10.4477    0.0404   56.7876 C.2     1  ZINC000011620562    0.2500
     18 C18        -9.7720    0.6323   57.9975 C.3     1  ZINC000011620562   -0.1100
     19 N19       -10.5223    0.6180   55.5488 N.pl3   1  ZINC000011620562   -0.3700
     20 C20        -9.9592    1.9168   55.1718 C.3     1  ZINC000011620562    0.0900
     21 N21       -11.2295   -0.2468   54.7034 N.am    1  ZINC000011620562   -0.3600
     22 C22       -11.5223   -0.0233   53.3544 C.ar    1  ZINC000011620562    0.1400
     23 C23       -12.6906    0.6370   52.9959 C.ar    1  ZINC000011620562   -0.1300
     24 C24       -12.9766    0.8566   51.6628 C.ar    1  ZINC000011620562   -0.1000
     25 C25       -12.1013    0.4199   50.6853 C.ar    1  ZINC000011620562   -0.1100
     26 C26       -10.9375   -0.2381   51.0387 C.ar    1  ZINC000011620562   -0.1000
     27 C27       -10.6428   -0.4558   52.3703 C.ar    1  ZINC000011620562   -0.1000
     28 C28       -11.5727   -1.3356   55.4212 C.2     1  ZINC000011620562    0.5500
     29 O29       -12.1961   -2.2986   55.0130 O.2     1  ZINC000011620562   -0.5000
     30 H30       -16.3261   -4.3238   54.7996 H       1  ZINC000011620562    0.0700
     31 H31       -15.1408   -3.0283   54.5078 H       1  ZINC000011620562    0.1100
     32 H32       -14.6017   -4.6011   55.1433 H       1  ZINC000011620562    0.0700
     33 H33       -17.1975   -3.6337   59.0257 H       1  ZINC000011620562    0.1200
     34 H34       -15.8485   -4.6754   59.5391 H       1  ZINC000011620562    0.1200
     35 H35       -15.1589   -2.0332   58.4512 H       1  ZINC000011620562    0.4200
     36 H36       -14.6380   -0.4801   61.0983 H       1  ZINC000011620562    0.1400
     37 H37       -13.2207   -1.5149   61.3969 H       1  ZINC000011620562    0.1400
     38 H38        -9.8729   -0.0509   58.8408 H       1  ZINC000011620562    0.1000
     39 H39        -8.7152    0.7906   57.7825 H       1  ZINC000011620562    0.1000
     40 H40       -10.2392    1.5857   58.2444 H       1  ZINC000011620562    0.1000
     41 H41        -9.4956    2.3786   56.0436 H       1  ZINC000011620562    0.1100
     42 H42        -9.2092    1.7756   54.3935 H       1  ZINC000011620562    0.0900
     43 H43       -10.7537    2.5627   54.7980 H       1  ZINC000011620562    0.0900
     44 H44       -13.3748    0.9779   53.7589 H       1  ZINC000011620562    0.1300
     45 H45       -13.8850    1.3695   51.3833 H       1  ZINC000011620562    0.1300
     46 H46       -12.3274    0.5930   49.6434 H       1  ZINC000011620562    0.1300
     47 H47       -10.2565   -0.5784   50.2728 H       1  ZINC000011620562    0.1400
     48 H48        -9.7336   -0.9695   52.6457 H       1  ZINC000011620562    0.1400
@<TRIPOS>BOND
     1     1     2    1
     2     1    30    1
     3     1    31    1
     4     1    32    1
     5     2     3    1
     6     3     4    2
     7     3     5    1
     8     5     6    1
     9     5    33    1
    10     5    34    1
    11     6     7   am
    12     6    35    1
    13     7     8    2
    14     7     9    1
    15     9    10    1
    16     9    36    1
    17     9    37    1
    18    10    11    1
    19    11    15    1
    20    11    12    2
    21    12    13    1
    22    13    14    2
    23    14    15    1
    24    15    16    1
    25    16    28    1
    26    16    17    2
    27    17    18    1
    28    17    19    1
    29    18    38    1
    30    18    39    1
    31    18    40    1
    32    19    20    1
    33    19    21    1
    34    20    41    1
    35    20    42    1
    36    20    43    1
    37    21    22    1
    38    21    28   am
    39    22    27   ar
    40    22    23   ar
    41    23    24   ar
    42    23    44    1
    43    24    25   ar
    44    24    45    1
    45    25    26   ar
    46    25    46    1
    47    26    27   ar
    48    26    47    1
    49    27    48    1
    50    28    29    2
@<TRIPOS>SUBSTRUCTURE
     1 ZINC000011620562        1 TEMP              0 ****  ****    0 ROOT


##########                                Name:    ZINC000110375116
##########                DOCK_Rotatable_Bonds:                  10
##########                         Heavy_Atoms:                  27
##########                    Molecular_Weight:             396.511
##########                DOCK_Rotatable_Bonds:                  10
##########                       Formal_Charge:        -2.23517e-07
##########                     HBond_Acceptors:                   9
##########                        HBond_Donors:                   0
##########                         Heavy_Atoms:                  27
##########                          Grid_Score:          -32.098175
##########                     Grid_vdw_energy:          -31.679720
##########                      Grid_es_energy:           -0.418457
##########           Internal_energy_repulsive:           28.504282

@<TRIPOS>MOLECULE
ZINC000110375116
 55 56 1 0 0
SMALL
USER_CHARGES


@<TRIPOS>ATOM
      1 C1         -8.4092   -0.9189   61.1326 C.3     1  ZINC000110375116   -0.1700
      2 C2         -8.5110   -1.7363   59.8433 C.3     1  ZINC000110375116    0.1000
      3 N3         -9.7951   -1.4643   59.1927 N.am    1  ZINC000110375116   -0.6200
      4 C4        -10.8854   -2.4380   59.2882 C.3     1  ZINC000110375116    0.1100
      5 C5        -11.7806   -2.0863   60.4781 C.3     1  ZINC000110375116   -0.1700
      6 C6         -9.9734   -0.3182   58.5062 C.2     1  ZINC000110375116    0.5100
      7 O7         -9.0702    0.4872   58.4259 O.2     1  ZINC000110375116   -0.5300
      8 C8        -11.2950   -0.0377   57.8385 C.3     1  ZINC000110375116   -0.1400
      9 C9        -11.2644   -0.5687   56.4039 C.3     1  ZINC000110375116   -0.0900
     10 C10       -10.6875    0.5024   55.4760 C.3     1  ZINC000110375116   -0.1400
     11 C11       -10.1584   -0.1494   54.2245 C.2     1  ZINC000110375116    0.5200
     12 O12       -10.2937   -1.3432   54.0588 O.2     1  ZINC000110375116   -0.5300
     13 N13        -9.5348    0.5943   53.2893 N.am    1  ZINC000110375116   -0.6200
     14 C14        -9.3598    2.0412   53.4786 C.3     1  ZINC000110375116    0.0900
     15 C15        -7.8683    2.3752   53.3516 C.3     1  ZINC000110375116    0.1000
     16 N16        -7.3508    1.7538   52.1246 N.am    1  ZINC000110375116   -1.0000
     17 S17        -6.5837    2.6674   50.9760 S.o2    1  ZINC000110375116    2.7000
     18 O18        -6.0801    1.7562   50.0089 O.2     1  ZINC000110375116   -0.9400
     19 O19        -7.4675    3.7325   50.6543 O.2     1  ZINC000110375116   -0.9500
     20 C20        -5.1793    3.4018   51.7462 C.ar    1  ZINC000110375116   -0.7400
     21 C21        -4.1236    2.6139   52.1782 C.ar    1  ZINC000110375116    0.0200
     22 C22        -3.0388    3.2352   52.7784 C.ar    1  ZINC000110375116   -0.1900
     23 C23        -3.0460    4.6092   52.9248 C.ar    1  ZINC000110375116    0.1500
     24 N24        -4.0680    5.3274   52.5017 N.ar    1  ZINC000110375116   -0.4900
     25 C25        -5.1135    4.7713   51.9219 C.ar    1  ZINC000110375116    0.2000
     26 C26        -7.5257    0.3070   51.9352 C.3     1  ZINC000110375116    0.1000
     27 C27        -9.0122   -0.0281   52.0648 C.3     1  ZINC000110375116    0.1000
     28 H28        -7.4537   -1.1213   61.6167 H       1  ZINC000110375116    0.0700
     29 H29        -8.4790    0.1428   60.8961 H       1  ZINC000110375116    0.0600
     30 H30        -9.2223   -1.1959   61.8036 H       1  ZINC000110375116    0.0600
     31 H31        -7.6978   -1.4593   59.1723 H       1  ZINC000110375116    0.0800
     32 H32        -8.4412   -2.7981   60.0798 H       1  ZINC000110375116    0.0800
     33 H33       -11.4743   -2.4153   58.3713 H       1  ZINC000110375116    0.0800
     34 H34       -10.4700   -3.4360   59.4284 H       1  ZINC000110375116    0.0800
     35 H35       -12.5918   -2.8108   60.5492 H       1  ZINC000110375116    0.0700
     36 H36       -11.1917   -2.1092   61.3950 H       1  ZINC000110375116    0.0500
     37 H37       -12.1959   -1.0884   60.3377 H       1  ZINC000110375116    0.0600
     38 H38       -12.0937   -0.5316   58.3918 H       1  ZINC000110375116    0.0900
     39 H39       -11.4738    1.0375   57.8242 H       1  ZINC000110375116    0.0900
     40 H40       -10.6407   -1.4615   56.3602 H       1  ZINC000110375116    0.0800
     41 H41       -12.2772   -0.8169   56.0868 H       1  ZINC000110375116    0.0800
     42 H42       -11.4696    1.2141   55.2121 H       1  ZINC000110375116    0.1000
     43 H43        -9.8769    1.0249   55.9840 H       1  ZINC000110375116    0.1000
     44 H44        -9.9218    2.5805   52.7161 H       1  ZINC000110375116    0.0800
     45 H45        -9.7156    2.3261   54.4688 H       1  ZINC000110375116    0.1000
     46 H46        -7.7390    3.4561   53.2970 H       1  ZINC000110375116    0.1100
     47 H47        -7.3309    1.9832   54.2150 H       1  ZINC000110375116    0.0800
     48 H48        -4.1457    1.5417   52.0507 H       1  ZINC000110375116    0.1500
     49 H49        -2.1992    2.6525   53.1273 H       1  ZINC000110375116    0.1500
     50 H50        -2.2052    5.1007   53.3916 H       1  ZINC000110375116    0.1700
     51 H51        -5.9319    5.3920   51.5882 H       1  ZINC000110375116    0.1700
     52 H52        -7.1700    0.0219   50.9451 H       1  ZINC000110375116    0.1100
     53 H53        -6.9638   -0.2324   52.6978 H       1  ZINC000110375116    0.0800
     54 H54        -9.1402   -1.1092   52.1193 H       1  ZINC000110375116    0.1100
     55 H55        -9.5521    0.3637   51.2026 H       1  ZINC000110375116    0.0800
@<TRIPOS>BOND
     1     1     2    1
     2     1    28    1
     3     1    29    1
     4     1    30    1
     5     2     3    1
     6     2    31    1
     7     2    32    1
     8     3     4    1
     9     3     6   am
    10     4     5    1
    11     4    33    1
    12     4    34    1
    13     5    35    1
    14     5    36    1
    15     5    37    1
    16     6     7    2
    17     6     8    1
    18     8     9    1
    19     8    38    1
    20     8    39    1
    21     9    10    1
    22     9    40    1
    23     9    41    1
    24    10    11    1
    25    10    42    1
    26    10    43    1
    27    11    12    2
    28    11    13   am
    29    13    27    1
    30    13    14    1
    31    14    15    1
    32    14    44    1
    33    14    45    1
    34    15    16    1
    35    15    46    1
    36    15    47    1
    37    16    17   am
    38    16    26    1
    39    17    18    2
    40    17    19    2
    41    17    20    1
    42    20    25   ar
    43    20    21   ar
    44    21    22   ar
    45    21    48    1
    46    22    23   ar
    47    22    49    1
    48    23    24   ar
    49    23    50    1
    50    24    25   ar
    51    25    51    1
    52    26    27    1
    53    26    52    1
    54    26    53    1
    55    27    54    1
    56    27    55    1
@<TRIPOS>SUBSTRUCTURE
     1 ZINC000110375116        1 TEMP              0 ****  ****    0 ROOT


##########                                Name:    ZINC000467185792
##########                DOCK_Rotatable_Bonds:                   9
##########                         Heavy_Atoms:                  29
##########                    Molecular_Weight:             412.513
##########                DOCK_Rotatable_Bonds:                   9
##########                       Formal_Charge:                0.04
##########                     HBond_Acceptors:                   8
##########                        HBond_Donors:                   2
##########                         Heavy_Atoms:                  29
##########                          Grid_Score:          -32.069889
##########                     Grid_vdw_energy:          -32.466854
##########                      Grid_es_energy:            0.396964
##########           Internal_energy_repulsive:           18.777143

@<TRIPOS>MOLECULE
ZINC000467185792
 53 55 1 0 0
SMALL
USER_CHARGES


@<TRIPOS>ATOM
      1 C1         -2.0277    4.8987   52.6535 C.3     1  ZINC000467185792   -0.1500
      2 C2         -2.7178    3.8834   51.7405 C.3     1  ZINC000467185792   -0.1200
      3 C3         -4.1520    3.6561   52.2230 C.3     1  ZINC000467185792    0.0600
      4 O4         -4.8031    2.7230   51.3583 O.3     1  ZINC000467185792   -0.3100
      5 C5         -5.9384    2.1387   51.8239 C.ar    1  ZINC000467185792    0.1400
      6 C6         -6.4284    0.9929   51.2124 C.ar    1  ZINC000467185792   -0.2100
      7 C7         -7.5801    0.3972   51.6828 C.ar    1  ZINC000467185792   -0.0400
      8 C8         -8.2521    0.9470   52.7733 C.ar    1  ZINC000467185792   -0.0600
      9 C9         -9.4907    0.3086   53.2821 C.2     1  ZINC000467185792    0.1400
     10 C10       -10.4300   -0.1933   52.4608 C.2     1  ZINC000467185792   -0.3000
     11 S11       -11.7289   -0.8568   53.4498 S.3     1  ZINC000467185792    0.2000
     12 C12       -10.8615   -0.3833   54.9075 C.2     1  ZINC000467185792    0.2800
     13 N13       -11.3014   -0.5942   56.2072 N.am    1  ZINC000467185792   -0.6100
     14 C14       -11.3168   -1.8407   56.7196 C.2     1  ZINC000467185792    0.5900
     15 O15       -10.9453   -2.7807   56.0433 O.2     1  ZINC000467185792   -0.4900
     16 C16       -11.7837   -2.0645   58.0991 C.2     1  ZINC000467185792   -0.2400
     17 C17       -13.1418   -2.0745   58.4111 C.2     1  ZINC000467185792    0.0800
     18 C18       -14.1844   -1.8566   57.3451 C.3     1  ZINC000467185792   -0.1200
     19 C19       -14.5707   -3.2019   56.7269 C.3     1  ZINC000467185792   -0.1400
     20 C20       -13.5088   -2.2934   59.7445 C.2     1  ZINC000467185792    0.0600
     21 C21       -14.9671   -2.3124   60.1241 C.3     1  ZINC000467185792   -0.0600
     22 C22       -15.4030   -0.9073   60.5444 C.3     1  ZINC000467185792   -0.1500
     23 N23       -12.5992   -2.4817   60.6616 N.2     1  ZINC000467185792   -0.1800
     24 N24       -11.3417   -2.4787   60.4090 N.am    1  ZINC000467185792   -0.4300
     25 C25       -10.8654   -2.2847   59.1643 C.2     1  ZINC000467185792    0.5000
     26 O26        -9.6646   -2.2870   58.9545 O.2     1  ZINC000467185792   -0.5300
     27 N27        -9.7451    0.1885   54.5774 N.2     1  ZINC000467185792   -0.5000
     28 C28        -7.7574    2.0977   53.3851 C.ar    1  ZINC000467185792   -0.0600
     29 C29        -6.6023    2.6856   52.9133 C.ar    1  ZINC000467185792   -0.1500
     30 H30        -2.0115    4.5172   53.6745 H       1  ZINC000467185792    0.0600
     31 H31        -1.0060    5.0606   52.3100 H       1  ZINC000467185792    0.0700
     32 H32        -2.5738    5.8416   52.6268 H       1  ZINC000467185792    0.0600
     33 H33        -2.7341    4.2649   50.7197 H       1  ZINC000467185792    0.0700
     34 H34        -2.1717    2.9405   51.7674 H       1  ZINC000467185792    0.0700
     35 H35        -4.1354    3.2601   53.2383 H       1  ZINC000467185792    0.0600
     36 H36        -4.6937    4.6018   52.2106 H       1  ZINC000467185792    0.0600
     37 H37        -5.9076    0.5676   50.3673 H       1  ZINC000467185792    0.1300
     38 H38        -7.9611   -0.4941   51.2064 H       1  ZINC000467185792    0.1300
     39 H39       -10.3947   -0.1901   51.3814 H       1  ZINC000467185792    0.1800
     40 H40       -11.5977    0.1556   56.7466 H       1  ZINC000467185792    0.4400
     41 H41       -15.0662   -1.3940   57.7884 H       1  ZINC000467185792    0.0900
     42 H42       -13.7817   -1.2034   56.5710 H       1  ZINC000467185792    0.1300
     43 H43       -13.6889   -3.6646   56.2835 H       1  ZINC000467185792    0.0600
     44 H44       -14.9734   -3.8552   57.5010 H       1  ZINC000467185792    0.0600
     45 H45       -15.3249   -3.0443   55.9558 H       1  ZINC000467185792    0.0700
     46 H46       -15.5608   -2.6366   59.2694 H       1  ZINC000467185792    0.1000
     47 H47       -15.1175   -3.0029   60.9540 H       1  ZINC000467185792    0.1000
     48 H48       -16.4578   -0.9211   60.8189 H       1  ZINC000467185792    0.0600
     49 H49       -14.8093   -0.5831   61.3990 H       1  ZINC000467185792    0.0600
     50 H50       -15.2526   -0.2168   59.7145 H       1  ZINC000467185792    0.0600
     51 H51       -10.7154   -2.6247   61.1353 H       1  ZINC000467185792    0.4500
     52 H52        -8.2759    2.5263   54.2300 H       1  ZINC000467185792    0.1300
     53 H53        -6.2184    3.5769   53.3871 H       1  ZINC000467185792    0.1400
@<TRIPOS>BOND
     1     1     2    1
     2     1    30    1
     3     1    31    1
     4     1    32    1
     5     2     3    1
     6     2    33    1
     7     2    34    1
     8     3     4    1
     9     3    35    1
    10     3    36    1
    11     4     5    1
    12     5    29   ar
    13     5     6   ar
    14     6     7   ar
    15     6    37    1
    16     7     8   ar
    17     7    38    1
    18     8     9    1
    19     8    28   ar
    20     9    27    1
    21     9    10    2
    22    10    11    1
    23    10    39    1
    24    11    12    1
    25    12    13    1
    26    12    27    2
    27    13    14   am
    28    13    40    1
    29    14    15    2
    30    14    16    1
    31    16    25    1
    32    16    17    2
    33    17    18    1
    34    17    20    1
    35    18    19    1
    36    18    41    1
    37    18    42    1
    38    19    43    1
    39    19    44    1
    40    19    45    1
    41    20    21    1
    42    20    23    2
    43    21    22    1
    44    21    46    1
    45    21    47    1
    46    22    48    1
    47    22    49    1
    48    22    50    1
    49    23    24    1
    50    24    25   am
    51    24    51    1
    52    25    26    2
    53    28    29   ar
    54    28    52    1
    55    29    53    1
@<TRIPOS>SUBSTRUCTURE
     1 ZINC000467185792        1 TEMP              0 ****  ****    0 ROOT


##########                                Name:     oleObject42.pdb
##########                DOCK_Rotatable_Bonds:                   9
##########                         Heavy_Atoms:                  36
##########                    Molecular_Weight:             527.493
##########                DOCK_Rotatable_Bonds:                   9
##########                       Formal_Charge:         9.99384e-05
##########                     HBond_Acceptors:                   8
##########                        HBond_Donors:                   0
##########                         Heavy_Atoms:                  36
##########                          Grid_Score:          -32.053226
##########                     Grid_vdw_energy:          -32.210762
##########                      Grid_es_energy:            0.157536
##########           Internal_energy_repulsive:           22.597843

@<TRIPOS>MOLECULE
oleObject42.pdb
 68 71 1 0 0
SMALL
NO_CHARGES


@<TRIPOS>ATOM
      1 C          -3.8016    2.7459   50.7712 C.ar    1  UNL        -0.0435
      2 C          -3.3220    2.8531   52.0846 C.ar    1  UNL        -0.0559
      3 C          -4.2411    2.9884   53.1422 C.ar    1  UNL        -0.0272
      4 C          -5.6247    3.0116   52.8341 C.ar    1  UNL         0.0699
      5 N          -6.0740    2.9072   51.5615 N.ar    1  UNL        -0.2586
      6 C          -5.1874    2.7777   50.5571 C.ar    1  UNL         0.0272
      7 C          -6.6941    3.1543   53.9306 C.3     1  UNL         0.1101
      8 C          -6.5769    4.4680   54.7278 C.ar    1  UNL         0.0699
      9 C          -6.7732    4.4989   56.1316 C.ar    1  UNL        -0.0272
     10 C          -6.6622    5.7344   56.7970 C.ar    1  UNL        -0.0559
     11 C          -6.3645    6.8864   56.0550 C.ar    1  UNL        -0.0435
     12 C          -6.1891    6.7658   54.6688 C.ar    1  UNL         0.0272
     13 N          -6.2947    5.5894   54.0235 N.ar    1  UNL        -0.2586
     14 C          -7.0976    3.2443   56.9351 C.3     1  UNL        -0.0379
     15 N          -8.0677    2.8555   53.4386 N.am    1  UNL        -0.2902
     16 C          -8.5767    1.5592   53.3495 C.2     1  UNL         0.2180
     17 O          -7.8289    0.5981   53.4253 O.2     1  UNL        -0.2772
     18 C         -10.0230    1.4039   52.8189 C.3     1  UNL         0.0385
     19 C         -11.0632    1.6477   53.9387 C.3     1  UNL        -0.0289
     20 C         -11.1492    0.4633   54.9250 C.3     1  UNL        -0.0010
     21 N         -11.4243   -0.8080   54.2212 N.4     1  UNL        -0.3010
     22 C         -10.4454   -1.1308   53.1596 C.3     1  UNL        -0.0010
     23 C         -10.2755    0.0281   52.1479 C.3     1  UNL        -0.0289
     24 C         -11.7303   -1.9409   55.1227 C.3     1  UNL         0.0222
     25 C         -13.2006   -1.9897   55.5950 C.3     1  UNL         0.0661
     26 O         -13.2430   -2.7263   56.8271 O.3     1  UNL        -0.3432
     27 C         -13.4651   -2.0479   58.0002 C.ar    1  UNL         0.0937
     28 C         -14.6481   -1.3037   58.1450 C.ar    1  UNL        -0.0288
     29 C         -14.8950   -0.5999   59.3353 C.ar    1  UNL        -0.0408
     30 C         -13.9558   -0.6386   60.3794 C.ar    1  UNL         0.0422
     31 C         -12.7696   -1.3775   60.2357 C.ar    1  UNL        -0.0221
     32 C         -12.5208   -2.0824   59.0460 C.ar    1  UNL         0.0723
     33 CL        -11.0300   -2.9931   58.8896 Cl      1  UNL        -0.0814
     34 CL        -14.2632    0.2389   61.8628 Cl      1  UNL        -0.0843
     35 C          -8.8299    3.9924   52.8843 C.3     1  UNL         0.0038
     36 C          -3.7225    3.1015   54.5717 C.3     1  UNL        -0.0379
     37 H          -3.1148    2.6394   49.9367 H       1  UNL         0.0639
     38 H          -2.2528    2.8296   52.2763 H       1  UNL         0.0627
     39 H          -5.6012    2.6963   49.5528 H       1  UNL         0.0840
     40 H          -6.4672    2.3652   54.6521 H       1  UNL         0.0643
     41 H          -6.8030    5.8019   57.8721 H       1  UNL         0.0627
     42 H          -6.2716    7.8522   56.5428 H       1  UNL         0.0639
     43 H          -5.9571    7.6357   54.0556 H       1  UNL         0.0840
     44 H          -8.0632    2.8201   56.6332 H       1  UNL         0.0280
     45 H          -7.1560    3.4573   58.0098 H       1  UNL         0.0280
     46 H          -6.3283    2.4744   56.7984 H       1  UNL         0.0280
     47 H         -10.1884    2.1542   52.0390 H       1  UNL         0.0402
     48 H         -12.0504    1.7969   53.4824 H       1  UNL         0.0288
     49 H         -10.8278    2.5680   54.4864 H       1  UNL         0.0288
     50 H         -11.9464    0.6672   55.6513 H       1  UNL         0.0431
     51 H         -10.2038    0.3917   55.4779 H       1  UNL         0.0431
     52 H         -10.7712   -2.0259   52.6145 H       1  UNL         0.0431
     53 H          -9.4710   -1.3595   53.6071 H       1  UNL         0.0431
     54 H         -11.1928    0.0962   51.5489 H       1  UNL         0.0288
     55 H          -9.4626   -0.2032   51.4475 H       1  UNL         0.0288
     56 H         -11.0815   -1.8867   56.0062 H       1  UNL         0.0455
     57 H         -11.4982   -2.8831   54.6098 H       1  UNL         0.0455
     58 H         -13.8226   -2.4863   54.8402 H       1  UNL         0.0586
     59 H         -13.5832   -0.9737   55.7519 H       1  UNL         0.0586
     60 H         -15.3716   -1.2741   57.3354 H       1  UNL         0.0652
     61 H         -15.8108   -0.0261   59.4466 H       1  UNL         0.0639
     62 H         -12.0442   -1.4029   61.0440 H       1  UNL         0.0655
     63 H          -8.5558    4.9253   53.3925 H       1  UNL         0.0433
     64 H          -9.9055    3.8266   53.0244 H       1  UNL         0.0433
     65 H          -8.6192    4.0904   51.8120 H       1  UNL         0.0433
     66 H          -2.6289    3.0233   54.6116 H       1  UNL         0.0280
     67 H          -4.1274    2.3037   55.2060 H       1  UNL         0.0280
     68 H          -3.9967    4.0656   55.0166 H       1  UNL         0.0280
@<TRIPOS>BOND
     1     1     2   ar
     2     1     6   ar
     3     1    37    1
     4     2     3   ar
     5     2    38    1
     6     3     4   ar
     7     3    36    1
     8     4     5   ar
     9     4     7    1
    10     5     6   ar
    11     6    39    1
    12     7     8    1
    13     7    15    1
    14     7    40    1
    15     8     9   ar
    16     8    13   ar
    17     9    10   ar
    18     9    14    1
    19    10    11   ar
    20    10    41    1
    21    11    12   ar
    22    11    42    1
    23    12    13   ar
    24    12    43    1
    25    14    44    1
    26    14    45    1
    27    14    46    1
    28    15    16   am
    29    15    35    1
    30    16    17    2
    31    16    18    1
    32    18    19    1
    33    18    23    1
    34    18    47    1
    35    19    20    1
    36    19    48    1
    37    19    49    1
    38    20    21    1
    39    20    50    1
    40    20    51    1
    41    21    22    1
    42    21    24    1
    43    22    23    1
    44    22    52    1
    45    22    53    1
    46    23    54    1
    47    23    55    1
    48    24    25    1
    49    24    56    1
    50    24    57    1
    51    25    26    1
    52    25    58    1
    53    25    59    1
    54    26    27    1
    55    27    28   ar
    56    27    32   ar
    57    28    29   ar
    58    28    60    1
    59    29    30   ar
    60    29    61    1
    61    30    31   ar
    62    30    34    1
    63    31    32   ar
    64    31    62    1
    65    32    33    1
    66    35    63    1
    67    35    64    1
    68    35    65    1
    69    36    66    1
    70    36    67    1
    71    36    68    1
@<TRIPOS>SUBSTRUCTURE
     1 UNL         1 TEMP              0 ****  ****    0 ROOT


##########                                Name:    ZINC000457806032
##########                DOCK_Rotatable_Bonds:                   8
##########                         Heavy_Atoms:                  24
##########                    Molecular_Weight:             387.911
##########                DOCK_Rotatable_Bonds:                   8
##########                       Formal_Charge:        -1.49012e-07
##########                     HBond_Acceptors:                   9
##########                        HBond_Donors:                   2
##########                         Heavy_Atoms:                  24
##########                          Grid_Score:          -32.012684
##########                     Grid_vdw_energy:          -31.514725
##########                      Grid_es_energy:           -0.497959
##########           Internal_energy_repulsive:           11.141270

@<TRIPOS>MOLECULE
ZINC000457806032
 42 43 1 0 0
SMALL
USER_CHARGES


@<TRIPOS>ATOM
      1 C1          2.4444   -1.8273   49.6564 C.3     1  ZINC000457806032    0.0800
      2 N2          2.2735   -0.5177   49.0223 N.am    1  ZINC000457806032   -1.0100
      3 C3          2.3590   -0.3927   47.5652 C.3     1  ZINC000457806032    0.0900
      4 S4          1.9836    0.8212   49.9526 S.o2    1  ZINC000457806032    2.7900
      5 O5          0.7019    0.6339   50.5369 O.2     1  ZINC000457806032   -0.9700
      6 O6          3.1613    1.0418   50.7165 O.2     1  ZINC000457806032   -0.9700
      7 N7          1.8446    2.1118   48.9242 N.am    1  ZINC000457806032   -1.1300
      8 C8          0.8018    2.1196   47.8953 C.3     1  ZINC000457806032    0.1100
      9 C9         -0.0125    3.4102   48.0041 C.3     1  ZINC000457806032    0.1100
     10 N10        -0.7638    3.4091   49.2618 N.am    1  ZINC000457806032   -0.7300
     11 C11        -2.0039    2.8832   49.3055 C.2     1  ZINC000457806032    0.5800
     12 O12        -2.4988    2.4082   48.3010 O.2     1  ZINC000457806032   -0.5300
     13 C13        -2.7597    2.8837   50.5691 C.2     1  ZINC000457806032   -0.1500
     14 C14        -2.1933    3.1796   51.7723 C.2     1  ZINC000457806032   -0.2200
     15 S15        -3.3535    3.0848   53.0194 S.3     1  ZINC000457806032    0.2400
     16 C16        -4.6194    2.6378   51.8862 C.2     1  ZINC000457806032   -0.1700
     17 C17        -6.0266    2.3646   52.2500 C.ar    1  ZINC000457806032   -0.0100
     18 C18        -6.6940    3.2023   53.1443 C.ar    1  ZINC000457806032   -0.0900
     19 C19        -8.0066    2.9425   53.4801 C.ar    1  ZINC000457806032   -0.1000
     20 C20        -8.6615    1.8527   52.9318 C.ar    1  ZINC000457806032   -0.0300
     21 Cl21      -10.3131    1.5317   53.3594 Cl      1  ZINC000457806032   -0.0600
     22 C22        -8.0045    1.0182   52.0435 C.ar    1  ZINC000457806032   -0.1000
     23 C23        -6.6937    1.2714   51.6959 C.ar    1  ZINC000457806032   -0.1000
     24 C24        -4.1217    2.5868   50.6404 C.2     1  ZINC000457806032   -0.0700
     25 H25         3.4980   -1.9844   49.8875 H       1  ZINC000457806032    0.0600
     26 H26         1.8612   -1.8644   50.5766 H       1  ZINC000457806032    0.0800
     27 H27         2.1012   -2.6076   48.9770 H       1  ZINC000457806032    0.0800
     28 H28         1.3691   -0.5295   47.1300 H       1  ZINC000457806032    0.0600
     29 H29         2.7361    0.5969   47.3069 H       1  ZINC000457806032    0.0700
     30 H30         3.0358   -1.1526   47.1744 H       1  ZINC000457806032    0.0700
     31 H31         2.4536    2.8626   49.0032 H       1  ZINC000457806032    0.4200
     32 H32         1.2636    2.0634   46.9095 H       1  ZINC000457806032    0.0700
     33 H33         0.1443    1.2619   48.0378 H       1  ZINC000457806032    0.0900
     34 H34         0.6607    4.2673   47.9838 H       1  ZINC000457806032    0.0800
     35 H35        -0.7066    3.4737   47.1661 H       1  ZINC000457806032    0.0800
     36 H36        -0.3686    3.7868   50.0631 H       1  ZINC000457806032    0.4000
     37 H37        -1.1546    3.4380   51.9165 H       1  ZINC000457806032    0.1700
     38 H38        -6.1840    4.0523   53.5731 H       1  ZINC000457806032    0.1400
     39 H39        -8.5242    3.5902   54.1721 H       1  ZINC000457806032    0.1400
     40 H40        -8.5203    0.1696   51.6191 H       1  ZINC000457806032    0.1400
     41 H41        -6.1822    0.6200   51.0027 H       1  ZINC000457806032    0.1300
     42 H42        -4.7171    2.3321   49.7760 H       1  ZINC000457806032    0.1600
@<TRIPOS>BOND
     1     1     2    1
     2     1    25    1
     3     1    26    1
     4     1    27    1
     5     2     3    1
     6     2     4   am
     7     3    28    1
     8     3    29    1
     9     3    30    1
    10     4     5    2
    11     4     6    2
    12     4     7   am
    13     7     8    1
    14     7    31    1
    15     8     9    1
    16     8    32    1
    17     8    33    1
    18     9    10    1
    19     9    34    1
    20     9    35    1
    21    10    11   am
    22    10    36    1
    23    11    12    2
    24    11    13    1
    25    13    24    1
    26    13    14    2
    27    14    15    1
    28    14    37    1
    29    15    16    1
    30    16    17    1
    31    16    24    2
    32    17    23   ar
    33    17    18   ar
    34    18    19   ar
    35    18    38    1
    36    19    20   ar
    37    19    39    1
    38    20    21    1
    39    20    22   ar
    40    22    23   ar
    41    22    40    1
    42    23    41    1
    43    24    42    1
@<TRIPOS>SUBSTRUCTURE
     1 ZINC000457806032        1 TEMP              0 ****  ****    0 ROOT


##########                                Name:    ZINC000603906271
##########                DOCK_Rotatable_Bonds:                   8
##########                         Heavy_Atoms:                  29
##########                    Molecular_Weight:             391.473
##########                DOCK_Rotatable_Bonds:                   8
##########                       Formal_Charge:           0.0499998
##########                     HBond_Acceptors:                   7
##########                        HBond_Donors:                   3
##########                         Heavy_Atoms:                  29
##########                          Grid_Score:          -31.960220
##########                     Grid_vdw_energy:          -30.447748
##########                      Grid_es_energy:           -1.512472
##########           Internal_energy_repulsive:           19.173796

@<TRIPOS>MOLECULE
ZINC000603906271
 54 56 1 0 0
SMALL
USER_CHARGES


@<TRIPOS>ATOM
      1 C1        -12.1084   -0.3638   53.7331 C.3     1  ZINC000603906271   -0.1600
      2 C2        -10.8938   -0.8716   54.5126 C.3     1  ZINC000603906271    0.1300
      3 H3        -10.6616   -1.8899   54.2006 H       1  ZINC000603906271    0.1200
      4 N4         -9.7439   -0.0044   54.2442 N.am    1  ZINC000603906271   -0.7100
      5 C5         -9.0913   -0.0952   53.0685 C.2     1  ZINC000603906271    0.5700
      6 O6         -9.4558   -0.8976   52.2314 O.2     1  ZINC000603906271   -0.5300
      7 C7         -7.9319    0.7811   52.7970 C.ar    1  ZINC000603906271   -0.1400
      8 C8         -7.0706    0.4953   51.7365 C.ar    1  ZINC000603906271   -0.0800
      9 C9         -5.9908    1.3172   51.4882 C.ar    1  ZINC000603906271   -0.1200
     10 C10        -5.7604    2.4225   52.2880 C.ar    1  ZINC000603906271   -0.0400
     11 C11        -4.5786    3.3156   52.0111 C.3     1  ZINC000603906271   -0.0400
     12 C12        -5.0498    4.7675   51.9074 C.3     1  ZINC000603906271   -0.1400
     13 C13        -3.5654    3.1884   53.1504 C.3     1  ZINC000603906271   -0.1500
     14 C14        -3.9208    2.8976   50.6945 C.3     1  ZINC000603906271   -0.1400
     15 C15        -6.6106    2.7117   53.3406 C.ar    1  ZINC000603906271   -0.1300
     16 C16        -7.6971    1.9008   53.5963 C.ar    1  ZINC000603906271   -0.0500
     17 C17       -11.2014   -0.8560   55.9878 C.2     1  ZINC000603906271    0.5100
     18 O18       -12.0470   -0.1033   56.4231 O.2     1  ZINC000603906271   -0.5100
     19 N19       -10.5368   -1.6784   56.8234 N.am    1  ZINC000603906271   -0.6700
     20 C20       -10.8224   -1.6639   58.1933 C.ar    1  ZINC000603906271    0.1300
     21 C21       -11.8605   -2.4392   58.6948 C.ar    1  ZINC000603906271   -0.1200
     22 C22       -12.1455   -2.4274   60.0473 C.ar    1  ZINC000603906271   -0.1000
     23 C23       -11.4009   -1.6452   60.9070 C.ar    1  ZINC000603906271   -0.0900
     24 C24       -10.3579   -0.8638   60.4124 C.ar    1  ZINC000603906271    0.0000
     25 C25        -9.5567   -0.0218   61.3353 C.2     1  ZINC000603906271    0.2700
     26 N26        -9.2250    1.2345   61.1336 N.2     1  ZINC000603906271   -0.3000
     27 N27        -8.4728    1.6376   62.2489 N.pl3   1  ZINC000603906271   -0.4800
     28 C28        -8.4003    0.5720   63.0667 C.2     1  ZINC000603906271    0.2700
     29 N29        -9.0564   -0.4142   62.5146 N.2     1  ZINC000603906271   -0.5300
     30 C30       -10.0657   -0.8801   59.0515 C.ar    1  ZINC000603906271   -0.0800
     31 H31       -12.3407    0.6544   54.0450 H       1  ZINC000603906271    0.0700
     32 H32       -11.8860   -0.3751   52.6660 H       1  ZINC000603906271    0.0800
     33 H33       -12.9640   -1.0090   53.9327 H       1  ZINC000603906271    0.0700
     34 H34        -9.4523    0.6350   54.9128 H       1  ZINC000603906271    0.4100
     35 H35        -7.2488   -0.3675   51.1119 H       1  ZINC000603906271    0.1300
     36 H36        -5.3235    1.0972   50.6679 H       1  ZINC000603906271    0.1300
     37 H37        -5.5184    5.0653   52.8454 H       1  ZINC000603906271    0.0600
     38 H38        -4.1949    5.4135   51.7072 H       1  ZINC000603906271    0.0600
     39 H39        -5.7716    4.8581   51.0957 H       1  ZINC000603906271    0.0600
     40 H40        -3.2296    2.1540   53.2243 H       1  ZINC000603906271    0.0600
     41 H41        -2.7105    3.8344   52.9502 H       1  ZINC000603906271    0.0600
     42 H42        -4.0340    3.4862   54.0884 H       1  ZINC000603906271    0.0600
     43 H43        -4.6427    2.9882   49.8829 H       1  ZINC000603906271    0.0600
     44 H44        -3.0660    3.5435   50.4943 H       1  ZINC000603906271    0.0600
     45 H45        -3.5851    1.8632   50.7684 H       1  ZINC000603906271    0.0600
     46 H46        -6.4255    3.5762   53.9609 H       1  ZINC000603906271    0.1400
     47 H47        -8.3603    2.1279   54.4180 H       1  ZINC000603906271    0.1400
     48 H48        -9.8605   -2.2804   56.4753 H       1  ZINC000603906271    0.4200
     49 H49       -12.4464   -3.0524   58.0262 H       1  ZINC000603906271    0.1300
     50 H50       -12.9535   -3.0318   60.4325 H       1  ZINC000603906271    0.1400
     51 H51       -11.6267   -1.6381   61.9631 H       1  ZINC000603906271    0.1400
     52 H52        -8.0821    2.5126   62.3998 H       1  ZINC000603906271    0.4400
     53 H53        -7.8913    0.5386   64.0187 H       1  ZINC000603906271    0.2300
     54 H54        -9.2586   -0.2765   58.6636 H       1  ZINC000603906271    0.1500
@<TRIPOS>BOND
     1     1     2    1
     2     1    31    1
     3     1    32    1
     4     1    33    1
     5     2     3    1
     6     2     4    1
     7     2    17    1
     8     4     5   am
     9     4    34    1
    10     5     6    2
    11     5     7    1
    12     7    16   ar
    13     7     8   ar
    14     8     9   ar
    15     8    35    1
    16     9    10   ar
    17     9    36    1
    18    10    11    1
    19    10    15   ar
    20    11    12    1
    21    11    13    1
    22    11    14    1
    23    12    37    1
    24    12    38    1
    25    12    39    1
    26    13    40    1
    27    13    41    1
    28    13    42    1
    29    14    43    1
    30    14    44    1
    31    14    45    1
    32    15    16   ar
    33    15    46    1
    34    16    47    1
    35    17    18    2
    36    17    19   am
    37    19    20    1
    38    19    48    1
    39    20    30   ar
    40    20    21   ar
    41    21    22   ar
    42    21    49    1
    43    22    23   ar
    44    22    50    1
    45    23    24   ar
    46    23    51    1
    47    24    25    1
    48    24    30   ar
    49    25    29    1
    50    25    26    2
    51    26    27    1
    52    27    28    1
    53    27    52    1
    54    28    29    2
    55    28    53    1
    56    30    54    1
@<TRIPOS>SUBSTRUCTURE
     1 ZINC000603906271        1 TEMP              0 ****  ****    0 ROOT


##########                                Name:    ZINC001327099466
##########                DOCK_Rotatable_Bonds:                   7
##########                         Heavy_Atoms:                  27
##########                    Molecular_Weight:             374.483
##########                DOCK_Rotatable_Bonds:                   7
##########                       Formal_Charge:           0.0199998
##########                     HBond_Acceptors:                   7
##########                        HBond_Donors:                   1
##########                         Heavy_Atoms:                  27
##########                          Grid_Score:          -31.846214
##########                     Grid_vdw_energy:          -31.584230
##########                      Grid_es_energy:           -0.261984
##########           Internal_energy_repulsive:           19.659927

@<TRIPOS>MOLECULE
ZINC001327099466
 57 60 1 0 0
SMALL
USER_CHARGES


@<TRIPOS>ATOM
      1 O1         -5.7266    2.0507   50.0212 O.2     1  ZINC001327099466   -0.4800
      2 C2         -6.0544    2.8653   50.8592 C.2     1  ZINC001327099466    0.5300
      3 N3         -5.1132    3.5113   51.5757 N.am    1  ZINC001327099466   -0.6000
      4 C4         -3.7583    3.2387   51.3573 C.2     1  ZINC001327099466    0.2900
      5 N5         -3.2521    2.6377   50.3057 N.2     1  ZINC001327099466   -0.3100
      6 N6         -1.8635    2.5606   50.4730 N.pl3   1  ZINC001327099466   -0.3500
      7 C7         -0.9150    1.9637   49.5294 C.3     1  ZINC001327099466    0.1700
      8 C8         -1.2465    2.4290   48.1101 C.3     1  ZINC001327099466   -0.1300
      9 C9         -0.2558    1.8057   47.1247 C.3     1  ZINC001327099466   -0.1200
     10 C10         1.1655    2.2421   47.4856 C.3     1  ZINC001327099466   -0.1300
     11 C11         1.4969    1.7768   48.9050 C.3     1  ZINC001327099466   -0.1200
     12 C12         0.5063    2.4002   49.8904 C.3     1  ZINC001327099466   -0.1300
     13 C13        -1.5522    3.1328   51.6552 C.2     1  ZINC001327099466    0.0700
     14 C14        -2.7008    3.5657   52.2221 C.2     1  ZINC001327099466   -0.2700
     15 C15        -7.5006    3.1562   51.0923 C.2     1  ZINC001327099466    0.5100
     16 O16        -8.0591    4.0159   50.4428 O.2     1  ZINC001327099466   -0.5100
     17 N17        -8.1856    2.4641   52.0241 N.am    1  ZINC001327099466   -0.5700
     18 C18        -7.5233    1.4204   52.8185 C.3     1  ZINC001327099466    0.0400
     19 C19        -8.3288    0.1229   52.6975 C.3     1  ZINC001327099466   -0.1300
     20 C20        -9.7818    0.3901   53.0972 C.3     1  ZINC001327099466   -0.1200
     21 C21       -10.3908    1.4268   52.1504 C.3     1  ZINC001327099466    0.0800
     22 H22       -10.3367    1.0595   51.1256 H       1  ZINC001327099466    0.0700
     23 O23       -11.7566    1.6523   52.5048 O.3     1  ZINC001327099466   -0.3500
     24 C24       -12.6801    0.7885   51.8391 C.3     1  ZINC001327099466    0.0600
     25 C25       -14.1504    1.2007   52.0218 C.3     1  ZINC001327099466   -0.1600
     26 C26       -13.9797    2.0732   50.7669 C.3     1  ZINC001327099466   -0.1400
     27 C27       -12.8574    1.1100   50.3458 C.3     1  ZINC001327099466   -0.1400
     28 C28        -9.6072    2.7429   52.2690 C.3     1  ZINC001327099466    0.0900
     29 H29        -5.3751    4.1651   52.2426 H       1  ZINC001327099466    0.4300
     30 H30        -0.9857    0.8772   49.5814 H       1  ZINC001327099466    0.1000
     31 H31        -2.2590    2.1180   47.8530 H       1  ZINC001327099466    0.0700
     32 H32        -1.1757    3.5154   48.0581 H       1  ZINC001327099466    0.0700
     33 H33        -0.3265    0.7193   47.1767 H       1  ZINC001327099466    0.0700
     34 H34        -0.4919    2.1372   46.1135 H       1  ZINC001327099466    0.0700
     35 H35         1.8713    1.7981   46.7837 H       1  ZINC001327099466    0.0700
     36 H36         1.2363    3.3286   47.4336 H       1  ZINC001327099466    0.0700
     37 H37         1.4262    0.6903   48.9570 H       1  ZINC001327099466    0.0700
     38 H38         2.5096    2.0878   49.1622 H       1  ZINC001327099466    0.0700
     39 H39         0.5770    3.4866   49.8384 H       1  ZINC001327099466    0.0700
     40 H40         0.7424    2.0687   50.9016 H       1  ZINC001327099466    0.0700
     41 H41        -0.5608    3.2311   52.0724 H       1  ZINC001327099466    0.1800
     42 H42        -2.7901    4.0686   53.1739 H       1  ZINC001327099466    0.1700
     43 H43        -6.5133    1.2599   52.4415 H       1  ZINC001327099466    0.1600
     44 H44        -7.4810    1.7281   53.8633 H       1  ZINC001327099466    0.0700
     45 H45        -8.2942   -0.2320   51.6676 H       1  ZINC001327099466    0.0700
     46 H46        -7.9029   -0.6325   53.3577 H       1  ZINC001327099466    0.0900
     47 H47       -10.3516   -0.5370   53.0357 H       1  ZINC001327099466    0.0800
     48 H48        -9.8136    0.7686   54.1190 H       1  ZINC001327099466    0.0800
     49 H49       -12.4928   -0.2664   52.0395 H       1  ZINC001327099466    0.0700
     50 H50       -14.8538    0.3787   51.8896 H       1  ZINC001327099466    0.0900
     51 H51       -14.3335    1.7740   52.9305 H       1  ZINC001327099466    0.0700
     52 H52       -14.8430    2.0551   50.1018 H       1  ZINC001327099466    0.0700
     53 H53       -13.6305    3.0832   50.9816 H       1  ZINC001327099466    0.0800
     54 H54       -11.9966    1.6100   49.9016 H       1  ZINC001327099466    0.0800
     55 H55       -13.2073    0.2632   49.7555 H       1  ZINC001327099466    0.0900
     56 H56        -9.7370    3.1564   53.2691 H       1  ZINC001327099466    0.0900
     57 H57        -9.9720    3.4535   51.5274 H       1  ZINC001327099466    0.1000
@<TRIPOS>BOND
     1     1     2    2
     2     2     3   am
     3     2    15    1
     4     3     4    1
     5     3    29    1
     6     4    14    1
     7     4     5    2
     8     5     6    1
     9     6     7    1
    10     6    13    1
    11     7    12    1
    12     7     8    1
    13     7    30    1
    14     8     9    1
    15     8    31    1
    16     8    32    1
    17     9    10    1
    18     9    33    1
    19     9    34    1
    20    10    11    1
    21    10    35    1
    22    10    36    1
    23    11    12    1
    24    11    37    1
    25    11    38    1
    26    12    39    1
    27    12    40    1
    28    13    14    2
    29    13    41    1
    30    14    42    1
    31    15    16    2
    32    15    17   am
    33    17    28    1
    34    17    18    1
    35    18    19    1
    36    18    43    1
    37    18    44    1
    38    19    20    1
    39    19    45    1
    40    19    46    1
    41    20    21    1
    42    20    47    1
    43    20    48    1
    44    21    22    1
    45    21    23    1
    46    21    28    1
    47    23    24    1
    48    24    27    1
    49    24    25    1
    50    24    49    1
    51    25    26    1
    52    25    50    1
    53    25    51    1
    54    26    27    1
    55    26    52    1
    56    26    53    1
    57    27    54    1
    58    27    55    1
    59    28    56    1
    60    28    57    1
@<TRIPOS>SUBSTRUCTURE
     1 ZINC001327099466        1 TEMP              0 ****  ****    0 ROOT


##########                                Name:    ZINC000426567005
##########                DOCK_Rotatable_Bonds:                   9
##########                         Heavy_Atoms:                  31
##########                    Molecular_Weight:             417.467
##########                DOCK_Rotatable_Bonds:                   9
##########                       Formal_Charge:        -2.23517e-07
##########                     HBond_Acceptors:                   8
##########                        HBond_Donors:                   4
##########                         Heavy_Atoms:                  31
##########                          Grid_Score:          -31.843027
##########                     Grid_vdw_energy:          -29.482038
##########                      Grid_es_energy:           -2.360989
##########           Internal_energy_repulsive:           12.813599

@<TRIPOS>MOLECULE
ZINC000426567005
 54 57 1 0 0
SMALL
USER_CHARGES


@<TRIPOS>ATOM
      1 O1         -5.6204    4.5499   52.1209 O.2     1  ZINC000426567005   -0.4900
      2 C2         -5.7411    3.3421   52.1094 C.2     1  ZINC000426567005    0.5200
      3 N3         -4.7101    2.5655   51.7215 N.am    1  ZINC000426567005   -0.6000
      4 C4         -3.5026    3.1518   51.3263 C.2     1  ZINC000426567005    0.3000
      5 N5         -3.1151    4.3766   51.5965 N.2     1  ZINC000426567005   -0.3100
      6 N6         -1.8520    4.5714   51.0230 N.pl3   1  ZINC000426567005   -0.4600
      7 C7         -1.4938    3.4279   50.4015 C.2     1  ZINC000426567005    0.1100
      8 C8         -0.2081    3.1909   49.6519 C.3     1  ZINC000426567005   -0.0300
      9 C9          0.3859    1.8081   50.0179 C.3     1  ZINC000426567005   -0.1200
     10 C10         1.2732    1.4818   48.7911 C.3     1  ZINC000426567005   -0.1300
     11 C11         0.4655    2.0115   47.5883 C.3     1  ZINC000426567005   -0.1300
     12 C12        -0.4764    3.0982   48.1355 C.3     1  ZINC000426567005   -0.1200
     13 C13        -2.4902    2.5307   50.5764 C.2     1  ZINC000426567005   -0.2600
     14 C14        -7.0291    2.7167   52.5309 C.2     1  ZINC000426567005    0.5200
     15 O15        -8.0839    3.2086   52.1864 O.2     1  ZINC000426567005   -0.4900
     16 N16        -7.0210    1.6059   53.2941 N.am    1  ZINC000426567005   -0.6400
     17 C17        -8.2228    1.0224   53.6874 C.ar    1  ZINC000426567005    0.1700
     18 C18        -8.8852    0.1503   52.8284 C.ar    1  ZINC000426567005   -0.1300
     19 C19       -10.0733   -0.4282   53.2142 C.ar    1  ZINC000426567005   -0.0300
     20 C20       -10.6141   -0.1392   54.4702 C.ar    1  ZINC000426567005   -0.1500
     21 C21       -11.8874   -0.7579   54.8871 C.2     1  ZINC000426567005    0.5600
     22 O22       -12.8758   -0.6451   54.1880 O.2     1  ZINC000426567005   -0.5100
     23 N23       -11.9546   -1.4479   56.0429 N.am    1  ZINC000426567005   -0.6700
     24 C24       -13.1612   -2.0343   56.4380 C.ar    1  ZINC000426567005    0.1400
     25 C25       -13.6687   -3.1213   55.7382 C.ar    1  ZINC000426567005   -0.1500
     26 C26       -14.8603   -3.6985   56.1313 C.ar    1  ZINC000426567005   -0.1000
     27 C27       -15.5480   -3.1950   57.2203 C.ar    1  ZINC000426567005   -0.1300
     28 C28       -15.0457   -2.1125   57.9190 C.ar    1  ZINC000426567005   -0.1000
     29 C29       -13.8517   -1.5344   57.5346 C.ar    1  ZINC000426567005   -0.1200
     30 C30        -9.9463    0.7366   55.3306 C.ar    1  ZINC000426567005   -0.0600
     31 C31        -8.7561    1.3081   54.9408 C.ar    1  ZINC000426567005   -0.1400
     32 H32        -4.8051    1.6001   51.7163 H       1  ZINC000426567005    0.4300
     33 H33        -1.3266    5.3857   51.0652 H       1  ZINC000426567005    0.4400
     34 H34         0.5083    3.9845   49.8648 H       1  ZINC000426567005    0.1100
     35 H35         0.9883    1.8739   50.9239 H       1  ZINC000426567005    0.0800
     36 H36        -0.4045    1.0660   50.1313 H       1  ZINC000426567005    0.0700
     37 H37         2.2305    1.9977   48.8646 H       1  ZINC000426567005    0.0700
     38 H38         1.4244    0.4057   48.7050 H       1  ZINC000426567005    0.0700
     39 H39         1.1388    2.4402   46.8460 H       1  ZINC000426567005    0.0700
     40 H40        -0.1153    1.2034   47.1435 H       1  ZINC000426567005    0.0700
     41 H41        -1.5143    2.8175   47.9566 H       1  ZINC000426567005    0.0600
     42 H42        -0.2601    4.0544   47.6590 H       1  ZINC000426567005    0.0700
     43 H43        -2.5077    1.5186   50.2002 H       1  ZINC000426567005    0.1700
     44 H44        -6.1780    1.2128   53.5695 H       1  ZINC000426567005    0.4300
     45 H45        -8.4668   -0.0727   51.8581 H       1  ZINC000426567005    0.1500
     46 H46       -10.5872   -1.1042   52.5470 H       1  ZINC000426567005    0.1400
     47 H47       -11.1662   -1.5379   56.6006 H       1  ZINC000426567005    0.4100
     48 H48       -13.1323   -3.5148   54.8874 H       1  ZINC000426567005    0.1300
     49 H49       -15.2557   -4.5435   55.5873 H       1  ZINC000426567005    0.1300
     50 H50       -16.4796   -3.6481   57.5257 H       1  ZINC000426567005    0.1200
     51 H51       -15.5855   -1.7213   58.7686 H       1  ZINC000426567005    0.1300
     52 H52       -13.4597   -0.6892   58.0808 H       1  ZINC000426567005    0.1300
     53 H53       -10.3618    0.9623   56.3016 H       1  ZINC000426567005    0.1300
     54 H54        -8.2395    1.9850   55.6053 H       1  ZINC000426567005    0.1400
@<TRIPOS>BOND
     1     1     2    2
     2     2     3   am
     3     2    14    1
     4     3     4    1
     5     3    32    1
     6     4    13    1
     7     4     5    2
     8     5     6    1
     9     6     7    1
    10     6    33    1
    11     7     8    1
    12     7    13    2
    13     8    12    1
    14     8     9    1
    15     8    34    1
    16     9    10    1
    17     9    35    1
    18     9    36    1
    19    10    11    1
    20    10    37    1
    21    10    38    1
    22    11    12    1
    23    11    39    1
    24    11    40    1
    25    12    41    1
    26    12    42    1
    27    13    43    1
    28    14    15    2
    29    14    16   am
    30    16    17    1
    31    16    44    1
    32    17    31   ar
    33    17    18   ar
    34    18    19   ar
    35    18    45    1
    36    19    20   ar
    37    19    46    1
    38    20    21    1
    39    20    30   ar
    40    21    22    2
    41    21    23   am
    42    23    24    1
    43    23    47    1
    44    24    29   ar
    45    24    25   ar
    46    25    26   ar
    47    25    48    1
    48    26    27   ar
    49    26    49    1
    50    27    28   ar
    51    27    50    1
    52    28    29   ar
    53    28    51    1
    54    29    52    1
    55    30    31   ar
    56    30    53    1
    57    31    54    1
@<TRIPOS>SUBSTRUCTURE
     1 ZINC000426567005        1 TEMP              0 ****  ****    0 ROOT


##########                                Name:    ZINC000409064708
##########                DOCK_Rotatable_Bonds:                   8
##########                         Heavy_Atoms:                  29
##########                    Molecular_Weight:             415.442
##########                DOCK_Rotatable_Bonds:                   8
##########                       Formal_Charge:                0.03
##########                     HBond_Acceptors:                   8
##########                        HBond_Donors:                   0
##########                         Heavy_Atoms:                  29
##########                          Grid_Score:          -31.834888
##########                     Grid_vdw_energy:          -30.894077
##########                      Grid_es_energy:           -0.940811
##########           Internal_energy_repulsive:           16.543217

@<TRIPOS>MOLECULE
ZINC000409064708
 47 49 1 0 0
SMALL
USER_CHARGES


@<TRIPOS>ATOM
      1 C1        -11.6273   -2.1649   59.7358 C.3     1  ZINC000409064708    0.0400
      2 O2        -12.0378   -1.4237   58.5566 O.3     1  ZINC000409064708   -0.3500
      3 C3        -11.5355   -1.8258   57.3786 C.2     1  ZINC000409064708    0.4600
      4 O4        -10.6507   -2.6481   57.3481 O.2     1  ZINC000409064708   -0.4900
      5 C5        -12.0753   -1.2518   56.0940 C.3     1  ZINC000409064708    0.1400
      6 H6        -12.4162   -2.0618   55.4491 H       1  ZINC000409064708    0.1500
      7 C7        -13.2478   -0.3195   56.4050 C.3     1  ZINC000409064708   -0.1600
      8 N8        -11.0190   -0.4980   55.4141 N.am    1  ZINC000409064708   -0.5600
      9 C9        -10.3977    0.5071   56.0418 C.2     1  ZINC000409064708    0.5400
     10 O10       -10.6121    0.8971   57.1738 O.2     1  ZINC000409064708   -0.4200
     11 S11        -9.2019    1.1609   54.9089 S.3     1  ZINC000409064708   -0.0100
     12 C12        -9.6026    0.0222   53.6077 C.2     1  ZINC000409064708   -0.2400
     13 C13        -9.0473   -0.0628   52.3723 C.2     1  ZINC000409064708    0.0900
     14 C14        -7.9767    0.8639   51.9832 C.ar    1  ZINC000409064708   -0.1400
     15 C15        -6.7010    0.3746   51.6761 C.ar    1  ZINC000409064708    0.0000
     16 C16        -5.7010    1.2479   51.3120 C.ar    1  ZINC000409064708   -0.1600
     17 C17        -5.9556    2.6131   51.2494 C.ar    1  ZINC000409064708    0.1600
     18 O18        -4.9657    3.4698   50.8897 O.3     1  ZINC000409064708   -0.3000
     19 C19        -3.7809    3.4644   51.6887 C.3     1  ZINC000409064708    0.1000
     20 C20        -2.6049    3.0542   50.8405 C.ar    1  ZINC000409064708   -0.0700
     21 C21        -1.3602    2.8893   51.4185 C.ar    1  ZINC000409064708   -0.1000
     22 C22        -0.2802    2.5130   50.6414 C.ar    1  ZINC000409064708   -0.0900
     23 C23        -0.4442    2.3011   49.2859 C.ar    1  ZINC000409064708   -0.1400
     24 C24        -1.6908    2.4654   48.7057 C.ar    1  ZINC000409064708    0.1000
     25 F25        -1.8523    2.2586   47.3804 F       1  ZINC000409064708   -0.1400
     26 C26        -2.7725    2.8372   49.4857 C.ar    1  ZINC000409064708   -0.1300
     27 C27        -7.2200    3.1043   51.5533 C.ar    1  ZINC000409064708   -0.2200
     28 C28        -8.2291    2.2395   51.9125 C.ar    1  ZINC000409064708   -0.0400
     29 C29       -10.6688   -0.8095   54.1774 C.2     1  ZINC000409064708    0.5600
     30 O30       -11.1959   -1.7136   53.5561 O.2     1  ZINC000409064708   -0.4600
     31 H31       -11.9254   -3.2082   59.6311 H       1  ZINC000409064708    0.0700
     32 H32       -10.5443   -2.1056   59.8435 H       1  ZINC000409064708    0.0700
     33 H33       -12.1041   -1.7376   60.6179 H       1  ZINC000409064708    0.1100
     34 H34       -14.0338   -0.8803   56.9107 H       1  ZINC000409064708    0.1000
     35 H35       -12.9069    0.4905   57.0499 H       1  ZINC000409064708    0.0800
     36 H36       -13.6382    0.0957   55.4759 H       1  ZINC000409064708    0.0800
     37 H37        -9.3928   -0.8120   51.6752 H       1  ZINC000409064708    0.1600
     38 H38        -6.5020   -0.6857   51.7251 H       1  ZINC000409064708    0.1300
     39 H39        -4.7169    0.8717   51.0749 H       1  ZINC000409064708    0.1400
     40 H40        -3.6088    4.4631   52.0899 H       1  ZINC000409064708    0.0800
     41 H41        -3.9001    2.7583   52.5104 H       1  ZINC000409064708    0.0800
     42 H42        -1.2310    3.0550   52.4778 H       1  ZINC000409064708    0.1300
     43 H43         0.6919    2.3848   51.0940 H       1  ZINC000409064708    0.1400
     44 H44         0.3997    2.0078   48.6789 H       1  ZINC000409064708    0.1400
     45 H45        -3.7453    2.9654   49.0344 H       1  ZINC000409064708    0.1400
     46 H46        -7.4122    4.1658   51.5034 H       1  ZINC000409064708    0.1300
     47 H47        -9.2111    2.6221   52.1483 H       1  ZINC000409064708    0.1300
@<TRIPOS>BOND
     1     1     2    1
     2     1    31    1
     3     1    32    1
     4     1    33    1
     5     2     3    1
     6     3     4    2
     7     3     5    1
     8     5     6    1
     9     5     7    1
    10     5     8    1
    11     7    34    1
    12     7    35    1
    13     7    36    1
    14     8    29   am
    15     8     9   am
    16     9    10    2
    17     9    11    1
    18    11    12    1
    19    12    13    2
    20    12    29    1
    21    13    14    1
    22    13    37    1
    23    14    28   ar
    24    14    15   ar
    25    15    16   ar
    26    15    38    1
    27    16    17   ar
    28    16    39    1
    29    17    18    1
    30    17    27   ar
    31    18    19    1
    32    19    20    1
    33    19    40    1
    34    19    41    1
    35    20    26   ar
    36    20    21   ar
    37    21    22   ar
    38    21    42    1
    39    22    23   ar
    40    22    43    1
    41    23    24   ar
    42    23    44    1
    43    24    25    1
    44    24    26   ar
    45    26    45    1
    46    27    28   ar
    47    27    46    1
    48    28    47    1
    49    29    30    2
@<TRIPOS>SUBSTRUCTURE
     1 ZINC000409064708        1 TEMP              0 ****  ****    0 ROOT


##########                                Name:    ZINC000004598904
##########                DOCK_Rotatable_Bonds:                  13
##########                         Heavy_Atoms:                  30
##########                    Molecular_Weight:             412.442
##########                DOCK_Rotatable_Bonds:                  13
##########                       Formal_Charge:          -0.0300005
##########                     HBond_Acceptors:                   8
##########                        HBond_Donors:                   2
##########                         Heavy_Atoms:                  30
##########                          Grid_Score:          -31.733225
##########                     Grid_vdw_energy:          -32.131729
##########                      Grid_es_energy:            0.398505
##########           Internal_energy_repulsive:            5.863584

@<TRIPOS>MOLECULE
ZINC000004598904
 54 55 1 0 0
SMALL
USER_CHARGES


@<TRIPOS>ATOM
      1 C1          4.0808    3.8793   41.7712 C.3     1  ZINC000004598904   -0.1500
      2 C2          4.4173    2.8142   42.8168 C.3     1  ZINC000004598904    0.0600
      3 O3          3.3761    2.7830   43.8282 O.3     1  ZINC000004598904   -0.3500
      4 C4          3.5216    1.8921   44.8287 C.2     1  ZINC000004598904    0.5100
      5 O5          4.4916    1.1607   44.8546 O.2     1  ZINC000004598904   -0.5100
      6 C6          2.5035    1.8046   45.8920 C.ar    1  ZINC000004598904   -0.1500
      7 C7          2.6441    0.8690   46.9214 C.ar    1  ZINC000004598904   -0.0400
      8 C8          1.6918    0.7901   47.9121 C.ar    1  ZINC000004598904   -0.1400
      9 C9          0.5903    1.6401   47.8900 C.ar    1  ZINC000004598904    0.1800
     10 N10        -0.3720    1.5576   48.8954 N.am    1  ZINC000004598904   -0.6700
     11 C11        -0.4599    2.5291   49.8254 C.2     1  ZINC000004598904    0.5200
     12 O12         0.2980    3.4752   49.7875 O.2     1  ZINC000004598904   -0.5100
     13 C13        -1.5001    2.4400   50.9122 C.3     1  ZINC000004598904   -0.1300
     14 C14        -2.6447    3.4071   50.6031 C.3     1  ZINC000004598904   -0.1300
     15 C15        -3.9287    2.8655   51.1766 C.2     1  ZINC000004598904    0.5200
     16 O16        -4.0415    2.7142   52.3747 O.2     1  ZINC000004598904   -0.5100
     17 N17        -4.9518    2.5491   50.3583 N.am    1  ZINC000004598904   -0.6700
     18 C18        -6.1396    2.0481   50.8889 C.ar    1  ZINC000004598904    0.1800
     19 C19        -7.1856    2.9151   51.1898 C.ar    1  ZINC000004598904   -0.1400
     20 C20        -8.3598    2.4239   51.7137 C.ar    1  ZINC000004598904   -0.0300
     21 C21        -8.5010    1.0521   51.9431 C.ar    1  ZINC000004598904   -0.1500
     22 C22        -9.7576    0.5220   52.5040 C.2     1  ZINC000004598904    0.5100
     23 O23        -9.8971    0.4365   53.7079 O.2     1  ZINC000004598904   -0.5100
     24 O24       -10.7511    0.1324   51.6812 O.3     1  ZINC000004598904   -0.3600
     25 C25       -12.0338    0.7948   51.8368 C.3     1  ZINC000004598904    0.0600
     26 C26       -12.5754    1.1874   50.4608 C.3     1  ZINC000004598904   -0.1500
     27 C27        -7.4482    0.1838   51.6392 C.ar    1  ZINC000004598904   -0.0400
     28 C28        -6.2786    0.6815   51.1110 C.ar    1  ZINC000004598904   -0.1600
     29 C29         0.4471    2.5724   46.8671 C.ar    1  ZINC000004598904   -0.1600
     30 C30         1.3984    2.6608   45.8761 C.ar    1  ZINC000004598904   -0.0300
     31 H31         4.0140    4.8542   42.2542 H       1  ZINC000004598904    0.0700
     32 H32         4.8625    3.9028   41.0118 H       1  ZINC000004598904    0.0800
     33 H33         3.1263    3.6398   41.3028 H       1  ZINC000004598904    0.0700
     34 H34         4.4840    1.8393   42.3338 H       1  ZINC000004598904    0.0700
     35 H35         5.3719    3.0537   43.2853 H       1  ZINC000004598904    0.0700
     36 H36         3.4986    0.2088   46.9389 H       1  ZINC000004598904    0.1400
     37 H37         1.7995    0.0674   48.7073 H       1  ZINC000004598904    0.1400
     38 H38        -0.9781    0.8009   48.9257 H       1  ZINC000004598904    0.4200
     39 H39        -1.8876    1.4224   50.9616 H       1  ZINC000004598904    0.1100
     40 H40        -1.0495    2.7042   51.8689 H       1  ZINC000004598904    0.1100
     41 H41        -2.4295    4.3787   51.0479 H       1  ZINC000004598904    0.1100
     42 H42        -2.7466    3.5164   49.5235 H       1  ZINC000004598904    0.1100
     43 H43        -4.8616    2.6702   49.4001 H       1  ZINC000004598904    0.4200
     44 H44        -7.0758    3.9748   51.0122 H       1  ZINC000004598904    0.1400
     45 H45        -9.1710    3.0975   51.9477 H       1  ZINC000004598904    0.1400
     46 H46       -12.7356    0.1178   52.3238 H       1  ZINC000004598904    0.0700
     47 H47       -11.9091    1.6894   52.4469 H       1  ZINC000004598904    0.0700
     48 H48       -13.5383    1.6846   50.5776 H       1  ZINC000004598904    0.0800
     49 H49       -11.8735    1.8644   49.9737 H       1  ZINC000004598904    0.0700
     50 H50       -12.7001    0.2927   49.8507 H       1  ZINC000004598904    0.0700
     51 H51        -7.5536   -0.8764   51.8155 H       1  ZINC000004598904    0.1400
     52 H52        -5.4649    0.0114   50.8755 H       1  ZINC000004598904    0.1400
     53 H53        -0.4091    3.2305   46.8530 H       1  ZINC000004598904    0.1400
     54 H54         1.2867    3.3847   45.0825 H       1  ZINC000004598904    0.1400
@<TRIPOS>BOND
     1     1     2    1
     2     1    31    1
     3     1    32    1
     4     1    33    1
     5     2     3    1
     6     2    34    1
     7     2    35    1
     8     3     4    1
     9     4     5    2
    10     4     6    1
    11     6    30   ar
    12     6     7   ar
    13     7     8   ar
    14     7    36    1
    15     8     9   ar
    16     8    37    1
    17     9    10    1
    18     9    29   ar
    19    10    11   am
    20    10    38    1
    21    11    12    2
    22    11    13    1
    23    13    14    1
    24    13    39    1
    25    13    40    1
    26    14    15    1
    27    14    41    1
    28    14    42    1
    29    15    16    2
    30    15    17   am
    31    17    18    1
    32    17    43    1
    33    18    28   ar
    34    18    19   ar
    35    19    20   ar
    36    19    44    1
    37    20    21   ar
    38    20    45    1
    39    21    22    1
    40    21    27   ar
    41    22    23    2
    42    22    24    1
    43    24    25    1
    44    25    26    1
    45    25    46    1
    46    25    47    1
    47    26    48    1
    48    26    49    1
    49    26    50    1
    50    27    28   ar
    51    27    51    1
    52    28    52    1
    53    29    30   ar
    54    29    53    1
    55    30    54    1
@<TRIPOS>SUBSTRUCTURE
     1 ZINC000004598904        1 TEMP              0 ****  ****    0 ROOT


##########                                Name:    ZINC000482846390
##########                DOCK_Rotatable_Bonds:                   9
##########                         Heavy_Atoms:                  30
##########                    Molecular_Weight:             420.469
##########                DOCK_Rotatable_Bonds:                   9
##########                       Formal_Charge:          -0.0100011
##########                     HBond_Acceptors:                  11
##########                        HBond_Donors:                   2
##########                         Heavy_Atoms:                  30
##########                          Grid_Score:          -31.730890
##########                     Grid_vdw_energy:          -29.978661
##########                      Grid_es_energy:           -1.752229
##########           Internal_energy_repulsive:           23.114964

@<TRIPOS>MOLECULE
ZINC000482846390
 58 60 1 0 0
SMALL
USER_CHARGES


@<TRIPOS>ATOM
      1 C1         -9.9836   -3.0812   58.6418 C.3     1  ZINC000482846390   -0.1000
      2 C2         -9.5302   -1.8473   59.3787 C.2     1  ZINC000482846390    0.0900
      3 C3        -10.1587   -0.6490   59.3904 C.2     1  ZINC000482846390   -0.2700
      4 C4         -9.4121    0.2208   60.1917 C.2     1  ZINC000482846390    0.0700
      5 C5         -9.7475    1.6607   60.4836 C.3     1  ZINC000482846390   -0.0500
      6 C6         -8.9618    2.5696   59.5363 C.3     1  ZINC000482846390    0.1500
      7 H7         -7.8962    2.3614   59.6335 H       1  ZINC000482846390    0.1000
      8 C8         -9.2301    4.0328   59.8940 C.3     1  ZINC000482846390   -0.1700
      9 N9         -9.3845    2.3188   58.1562 N.am    1  ZINC000482846390   -0.6800
     10 C10        -8.5914    1.6125   57.3263 C.2     1  ZINC000482846390    0.5100
     11 O11        -7.5281    1.1831   57.7227 O.2     1  ZINC000482846390   -0.5200
     12 C12        -9.0219    1.3582   55.9180 C.2     1  ZINC000482846390    0.5100
     13 O13        -9.8215    0.4775   55.6775 O.2     1  ZINC000482846390   -0.5100
     14 N14        -8.5223    2.1070   54.9149 N.am    1  ZINC000482846390   -0.5900
     15 C15        -7.5488    3.1729   55.1906 C.3     1  ZINC000482846390    0.0500
     16 C16        -6.2985    2.9274   54.3370 C.3     1  ZINC000482846390    0.1000
     17 N17        -6.7169    2.6924   52.9479 N.am    1  ZINC000482846390   -0.6000
     18 C18        -6.2166    3.4405   51.9448 C.2     1  ZINC000482846390    0.5200
     19 O19        -6.5696    3.2370   50.8017 O.2     1  ZINC000482846390   -0.5000
     20 C20        -5.2269    4.5208   52.2400 C.2     1  ZINC000482846390    0.5200
     21 O21        -5.5986    5.6707   52.3499 O.2     1  ZINC000482846390   -0.5000
     22 N22        -3.9215    4.2179   52.3840 N.am    1  ZINC000482846390   -0.6000
     23 C23        -3.4462    2.8318   52.2491 C.3     1  ZINC000482846390    0.0700
     24 C24        -2.2663    2.8184   51.2707 C.3     1  ZINC000482846390    0.0500
     25 O25        -1.2979    3.7839   51.6878 O.3     1  ZINC000482846390   -0.3700
     26 C26        -1.7747    5.1317   51.6811 C.3     1  ZINC000482846390    0.0500
     27 C27        -2.9287    5.2643   52.6749 C.3     1  ZINC000482846390    0.0700
     28 C28        -7.6904    1.6264   52.6722 C.3     1  ZINC000482846390    0.0900
     29 C29        -8.9365    1.8682   53.5252 C.3     1  ZINC000482846390    0.0900
     30 N30        -8.3726   -0.4318   60.6449 N.2     1  ZINC000482846390   -0.2800
     31 N31        -8.4278   -1.7411   60.1498 N.pl3   1  ZINC000482846390   -0.4700
     32 H32       -10.6388   -3.6684   59.2852 H       1  ZINC000482846390    0.0800
     33 H33       -10.5247   -2.7888   57.7419 H       1  ZINC000482846390    0.0900
     34 H34        -9.1150   -3.6789   58.3653 H       1  ZINC000482846390    0.0700
     35 H35       -11.0749   -0.4070   58.8722 H       1  ZINC000482846390    0.1500
     36 H36       -10.8158    1.8215   60.3386 H       1  ZINC000482846390    0.0900
     37 H37        -9.4817    1.8938   61.5146 H       1  ZINC000482846390    0.1100
     38 H38        -8.9156    4.2195   60.9207 H       1  ZINC000482846390    0.0700
     39 H39        -8.6704    4.6803   59.2190 H       1  ZINC000482846390    0.0700
     40 H40       -10.2956    4.2411   59.7968 H       1  ZINC000482846390    0.0600
     41 H41       -10.2351    2.6610   57.8397 H       1  ZINC000482846390    0.4200
     42 H42        -7.9825    4.1396   54.9346 H       1  ZINC000482846390    0.0800
     43 H43        -7.2794    3.1581   56.2467 H       1  ZINC000482846390    0.1600
     44 H44        -5.6486    3.8015   54.3802 H       1  ZINC000482846390    0.1100
     45 H45        -5.7656    2.0534   54.7114 H       1  ZINC000482846390    0.0800
     46 H46        -3.1218    2.4588   53.2206 H       1  ZINC000482846390    0.0900
     47 H47        -4.2497    2.2040   51.8639 H       1  ZINC000482846390    0.0900
     48 H48        -1.8120    1.8277   51.2616 H       1  ZINC000482846390    0.1100
     49 H49        -2.6202    3.0667   50.2700 H       1  ZINC000482846390    0.0600
     50 H50        -0.9668    5.8050   51.9672 H       1  ZINC000482846390    0.1100
     51 H51        -2.1268    5.3883   50.6819 H       1  ZINC000482846390    0.0600
     52 H52        -3.3888    6.2473   52.5742 H       1  ZINC000482846390    0.1100
     53 H53        -2.5549    5.1358   53.6907 H       1  ZINC000482846390    0.0800
     54 H54        -7.9598    1.6413   51.6161 H       1  ZINC000482846390    0.0900
     55 H55        -7.2567    0.6598   52.9281 H       1  ZINC000482846390    0.0900
     56 H56        -9.5854    0.9935   53.4810 H       1  ZINC000482846390    0.1100
     57 H57        -9.4707    2.7423   53.1529 H       1  ZINC000482846390    0.0800
     58 H58        -7.7841   -2.4452   60.3253 H       1  ZINC000482846390    0.4400
@<TRIPOS>BOND
     1     1     2    1
     2     1    32    1
     3     1    33    1
     4     1    34    1
     5     2    31    1
     6     2     3    2
     7     3     4    1
     8     3    35    1
     9     4     5    1
    10     4    30    2
    11     5     6    1
    12     5    36    1
    13     5    37    1
    14     6     7    1
    15     6     8    1
    16     6     9    1
    17     8    38    1
    18     8    39    1
    19     8    40    1
    20     9    10   am
    21     9    41    1
    22    10    11    2
    23    10    12    1
    24    12    13    2
    25    12    14   am
    26    14    29    1
    27    14    15    1
    28    15    16    1
    29    15    42    1
    30    15    43    1
    31    16    17    1
    32    16    44    1
    33    16    45    1
    34    17    18   am
    35    17    28    1
    36    18    19    2
    37    18    20    1
    38    20    21    2
    39    20    22   am
    40    22    27    1
    41    22    23    1
    42    23    24    1
    43    23    46    1
    44    23    47    1
    45    24    25    1
    46    24    48    1
    47    24    49    1
    48    25    26    1
    49    26    27    1
    50    26    50    1
    51    26    51    1
    52    27    52    1
    53    27    53    1
    54    28    29    1
    55    28    54    1
    56    28    55    1
    57    29    56    1
    58    29    57    1
    59    30    31    1
    60    31    58    1
@<TRIPOS>SUBSTRUCTURE
     1 ZINC000482846390        1 TEMP              0 ****  ****    0 ROOT


##########                                Name:    ZINC001109848453
##########                DOCK_Rotatable_Bonds:                   8
##########                         Heavy_Atoms:                  24
##########                    Molecular_Weight:             328.337
##########                DOCK_Rotatable_Bonds:                   8
##########                       Formal_Charge:          0.00999966
##########                     HBond_Acceptors:                  11
##########                        HBond_Donors:                   2
##########                         Heavy_Atoms:                  24
##########                          Grid_Score:          -31.713512
##########                     Grid_vdw_energy:          -27.293690
##########                      Grid_es_energy:           -4.419824
##########           Internal_energy_repulsive:            9.364272

@<TRIPOS>MOLECULE
ZINC001109848453
 40 43 1 0 0
SMALL
USER_CHARGES


@<TRIPOS>ATOM
      1 O1         -0.5068    2.9663   59.7847 O.2     1  ZINC001109848453   -0.5000
      2 C2         -0.4046    1.8132   59.4230 C.2     1  ZINC001109848453    0.5000
      3 C3         -0.1407    0.7270   60.4337 C.3     1  ZINC001109848453    0.1100
      4 N4         -0.6027    1.1650   61.7532 N.pl3   1  ZINC001109848453   -0.3700
      5 C5         -0.0636    0.8458   62.9425 C.2     1  ZINC001109848453    0.2600
      6 N6         -0.7637    1.4357   63.8772 N.2     1  ZINC001109848453   -0.5400
      7 C7         -1.7534    2.1371   63.3257 C.2     1  ZINC001109848453    0.2000
      8 N8         -1.6932    2.0067   62.0265 N.2     1  ZINC001109848453   -0.2900
      9 N9         -0.5326    1.5025   58.1178 N.am    1  ZINC001109848453   -0.7300
     10 C10        -0.7891    2.5584   57.1353 C.3     1  ZINC001109848453    0.1700
     11 H11        -1.0210    3.4887   57.6537 H       1  ZINC001109848453    0.1000
     12 C12        -1.9731    2.1574   56.2530 C.3     1  ZINC001109848453    0.1200
     13 N13        -2.0587    3.0671   55.1077 N.pl3   1  ZINC001109848453   -0.6800
     14 C14        -3.1831    3.0584   54.2990 C.2     1  ZINC001109848453    0.4900
     15 N15        -4.3873    3.0030   54.8342 N.2     1  ZINC001109848453   -0.5300
     16 C16        -5.4816    2.9944   54.0687 C.2     1  ZINC001109848453    0.1400
     17 C17        -5.3995    3.0414   52.7230 C.2     1  ZINC001109848453   -0.0500
     18 N18        -4.1763    3.0998   52.1150 N.pl3   1  ZINC001109848453   -0.1800
     19 N19        -3.7853    3.1522   50.8912 N.2     1  ZINC001109848453   -0.1000
     20 N20        -2.4984    3.1935   50.8575 N.2     1  ZINC001109848453   -0.0400
     21 N21        -2.0245    3.1689   52.0574 N.2     1  ZINC001109848453   -0.2600
     22 C22        -3.0506    3.1150   52.8916 C.2     1  ZINC001109848453    0.1000
     23 C23         0.4525    2.7564   56.2633 C.3     1  ZINC001109848453   -0.1800
     24 C24         0.8882    4.1935   55.9705 C.3     1  ZINC001109848453   -0.1700
     25 C25         1.7029    3.3284   56.9342 C.3     1  ZINC001109848453   -0.1700
     26 H26        -0.6756   -0.1774   60.1433 H       1  ZINC001109848453    0.1300
     27 H27         0.9286    0.5197   60.4736 H       1  ZINC001109848453    0.1200
     28 H28         0.7970    0.2123   63.0993 H       1  ZINC001109848453    0.2200
     29 H29        -2.4841    2.7218   63.8647 H       1  ZINC001109848453    0.2200
     30 H30        -0.4547    0.5797   57.8291 H       1  ZINC001109848453    0.4000
     31 H31        -1.8316    1.1371   55.8968 H       1  ZINC001109848453    0.1000
     32 H32        -2.8943    2.2155   56.8327 H       1  ZINC001109848453    0.0900
     33 H33        -1.3279    3.6754   54.9158 H       1  ZINC001109848453    0.4200
     34 H34        -6.4536    2.9484   54.5372 H       1  ZINC001109848453    0.2000
     35 H35        -6.2995    3.0326   52.1261 H       1  ZINC001109848453    0.1900
     36 H36         0.5975    2.0159   55.4767 H       1  ZINC001109848453    0.1100
     37 H37         1.3199    4.3988   54.9909 H       1  ZINC001109848453    0.1000
     38 H38         0.2904    4.9978   56.3989 H       1  ZINC001109848453    0.1000
     39 H39         1.6410    3.5637   57.9968 H       1  ZINC001109848453    0.1200
     40 H40         2.6706    2.9646   56.5888 H       1  ZINC001109848453    0.0900
@<TRIPOS>BOND
     1     1     2    2
     2     2     3    1
     3     2     9   am
     4     3     4    1
     5     3    26    1
     6     3    27    1
     7     4     8    1
     8     4     5    1
     9     5     6    2
    10     5    28    1
    11     6     7    1
    12     7     8    2
    13     7    29    1
    14     9    10    1
    15     9    30    1
    16    10    11    1
    17    10    12    1
    18    10    23    1
    19    12    13    1
    20    12    31    1
    21    12    32    1
    22    13    14    1
    23    13    33    1
    24    14    22    1
    25    14    15    2
    26    15    16    1
    27    16    17    2
    28    16    34    1
    29    17    18    1
    30    17    35    1
    31    18    22    1
    32    18    19    1
    33    19    20    2
    34    20    21    1
    35    21    22    2
    36    23    25    1
    37    23    24    1
    38    23    36    1
    39    24    25    1
    40    24    37    1
    41    24    38    1
    42    25    39    1
    43    25    40    1
@<TRIPOS>SUBSTRUCTURE
     1 ZINC001109848453        1 TEMP              0 ****  ****    0 ROOT


##########                                Name:    ZINC000512239524
##########                DOCK_Rotatable_Bonds:                   9
##########                         Heavy_Atoms:                  31
##########                    Molecular_Weight:             424.518
##########                DOCK_Rotatable_Bonds:                   9
##########                       Formal_Charge:          0.00999919
##########                     HBond_Acceptors:                   7
##########                        HBond_Donors:                   1
##########                         Heavy_Atoms:                  31
##########                          Grid_Score:          -31.670824
##########                     Grid_vdw_energy:          -32.225040
##########                      Grid_es_energy:            0.554217
##########           Internal_energy_repulsive:           26.972876

@<TRIPOS>MOLECULE
ZINC000512239524
 60 63 1 0 0
SMALL
USER_CHARGES


@<TRIPOS>ATOM
      1 C1        -12.0534   -1.3736   59.1031 C.3     1  ZINC000512239524   -0.1600
      2 C2        -10.5684   -1.2519   58.7551 C.3     1  ZINC000512239524    0.2000
      3 H3        -10.1694   -2.2376   58.5159 H       1  ZINC000512239524    0.1100
      4 N4        -10.4089   -0.3667   57.5988 N.am    1  ZINC000512239524   -0.7400
      5 C5        -10.6591   -0.8278   56.3574 C.2     1  ZINC000512239524    0.7100
      6 O6        -11.0173   -1.9787   56.1971 O.2     1  ZINC000512239524   -0.5800
      7 N7        -10.5123   -0.0134   55.2936 N.am    1  ZINC000512239524   -0.6300
      8 C8        -10.0745    1.3779   55.4708 C.3     1  ZINC000512239524    0.1300
      9 C9         -8.8574    1.6296   54.5750 C.3     1  ZINC000512239524   -0.1100
     10 C10        -9.2063    1.2594   53.1315 C.3     1  ZINC000512239524   -0.1000
     11 C11        -8.0224    1.5379   52.2418 C.2     1  ZINC000512239524    0.5300
     12 O12        -7.1687    0.6906   52.0853 O.2     1  ZINC000512239524   -0.5300
     13 N13        -7.9120    2.7285   51.6198 N.am    1  ZINC000512239524   -0.5800
     14 C14        -6.7619    2.9985   50.7534 C.3     1  ZINC000512239524    0.1500
     15 C15        -5.5040    3.0276   51.5829 C.ar    1  ZINC000512239524   -0.1100
     16 C16        -4.3008    2.6341   51.0276 C.ar    1  ZINC000512239524   -0.0900
     17 C17        -3.1470    2.6608   51.7884 C.ar    1  ZINC000512239524   -0.1200
     18 C18        -3.1963    3.0813   53.1044 C.ar    1  ZINC000512239524   -0.1100
     19 C19        -4.3993    3.4755   53.6593 C.ar    1  ZINC000512239524   -0.1200
     20 C20        -5.5524    3.4530   52.8973 C.ar    1  ZINC000512239524   -0.1100
     21 C21        -8.9422    3.7526   51.8101 C.3     1  ZINC000512239524    0.0700
     22 C22        -9.2730    4.6520   50.6175 C.3     1  ZINC000512239524   -0.1900
     23 C23       -10.2636    3.5733   51.0602 C.3     1  ZINC000512239524   -0.2000
     24 C24        -9.5623   -0.2271   53.0562 C.3     1  ZINC000512239524   -0.1400
     25 C25       -10.7813   -0.5017   53.9342 C.3     1  ZINC000512239524    0.1100
     26 C26        -9.8218   -0.6800   59.9326 C.ar    1  ZINC000512239524   -0.0800
     27 C27       -10.2497    0.4874   60.5449 C.ar    1  ZINC000512239524   -0.1400
     28 C28        -9.5399    0.9823   61.6230 C.ar    1  ZINC000512239524    0.1000
     29 N29        -8.4676    0.3585   62.0697 N.ar    1  ZINC000512239524   -0.4600
     30 C30        -8.0300   -0.7541   61.5134 C.ar    1  ZINC000512239524    0.0800
     31 C31        -8.6918   -1.3129   60.4338 C.ar    1  ZINC000512239524    0.0600
     32 F32        -8.2384   -2.4531   59.8683 F       1  ZINC000512239524   -0.1200
     33 H33       -12.5934   -1.7873   58.2515 H       1  ZINC000512239524    0.0700
     34 H34       -12.1721   -2.0324   59.9635 H       1  ZINC000512239524    0.0700
     35 H35       -12.4524   -0.3879   59.3424 H       1  ZINC000512239524    0.0600
     36 H36       -10.1230    0.5514   57.7267 H       1  ZINC000512239524    0.3900
     37 H37       -10.8818    2.0537   55.1889 H       1  ZINC000512239524    0.0700
     38 H38        -9.8020    1.5453   56.5129 H       1  ZINC000512239524    0.1000
     39 H39        -8.5814    2.6830   54.6239 H       1  ZINC000512239524    0.0900
     40 H40        -8.0221    1.0179   54.9158 H       1  ZINC000512239524    0.0800
     41 H41       -10.0577    1.8538   52.7998 H       1  ZINC000512239524    0.1000
     42 H42        -6.6824    2.2145   50.0004 H       1  ZINC000512239524    0.0900
     43 H43        -6.8955    3.9622   50.2621 H       1  ZINC000512239524    0.1000
     44 H44        -4.2622    2.3056   49.9995 H       1  ZINC000512239524    0.1300
     45 H45        -2.2070    2.3528   51.3548 H       1  ZINC000512239524    0.1200
     46 H46        -2.2949    3.1014   53.6990 H       1  ZINC000512239524    0.1200
     47 H47        -4.4380    3.8038   54.6875 H       1  ZINC000512239524    0.1200
     48 H48        -6.4924    3.7610   53.3309 H       1  ZINC000512239524    0.1200
     49 H49        -8.9841    4.1983   52.8040 H       1  ZINC000512239524    0.1300
     50 H50        -9.5325    5.6898   50.8266 H       1  ZINC000512239524    0.1100
     51 H51        -8.7243    4.4818   49.6913 H       1  ZINC000512239524    0.1000
     52 H52       -10.3665    2.6934   50.4251 H       1  ZINC000512239524    0.1100
     53 H53       -11.1748    3.9014   51.5604 H       1  ZINC000512239524    0.1000
     54 H54        -9.7879   -0.4953   52.0241 H       1  ZINC000512239524    0.0900
     55 H55        -8.7203   -0.8213   53.4113 H       1  ZINC000512239524    0.0700
     56 H56       -10.9779   -1.5734   53.9618 H       1  ZINC000512239524    0.0800
     57 H57       -11.6483    0.0207   53.5296 H       1  ZINC000512239524    0.0800
     58 H58       -11.1266    1.0042   60.1841 H       1  ZINC000512239524    0.1400
     59 H59        -9.8675    1.8916   62.1051 H       1  ZINC000512239524    0.1700
     60 H60        -7.1476   -1.2367   61.9070 H       1  ZINC000512239524    0.1700
@<TRIPOS>BOND
     1     1     2    1
     2     1    33    1
     3     1    34    1
     4     1    35    1
     5     2     3    1
     6     2     4    1
     7     2    26    1
     8     4     5   am
     9     4    36    1
    10     5     6    2
    11     5     7   am
    12     7    25    1
    13     7     8    1
    14     8     9    1
    15     8    37    1
    16     8    38    1
    17     9    10    1
    18     9    39    1
    19     9    40    1
    20    10    11    1
    21    10    24    1
    22    10    41    1
    23    11    12    2
    24    11    13   am
    25    13    14    1
    26    13    21    1
    27    14    15    1
    28    14    42    1
    29    14    43    1
    30    15    20   ar
    31    15    16   ar
    32    16    17   ar
    33    16    44    1
    34    17    18   ar
    35    17    45    1
    36    18    19   ar
    37    18    46    1
    38    19    20   ar
    39    19    47    1
    40    20    48    1
    41    21    23    1
    42    21    22    1
    43    21    49    1
    44    22    23    1
    45    22    50    1
    46    22    51    1
    47    23    52    1
    48    23    53    1
    49    24    25    1
    50    24    54    1
    51    24    55    1
    52    25    56    1
    53    25    57    1
    54    26    31   ar
    55    26    27   ar
    56    27    28   ar
    57    27    58    1
    58    28    29   ar
    59    28    59    1
    60    29    30   ar
    61    30    31   ar
    62    30    60    1
    63    31    32    1
@<TRIPOS>SUBSTRUCTURE
     1 ZINC000512239524        1 TEMP              0 ****  ****    0 ROOT


##########                                Name:    ZINC000992031068
##########                DOCK_Rotatable_Bonds:                   8
##########                         Heavy_Atoms:                  25
##########                    Molecular_Weight:             342.401
##########                DOCK_Rotatable_Bonds:                   8
##########                       Formal_Charge:           0.0199999
##########                     HBond_Acceptors:                   8
##########                        HBond_Donors:                   2
##########                         Heavy_Atoms:                  25
##########                          Grid_Score:          -31.662502
##########                     Grid_vdw_energy:          -30.947504
##########                      Grid_es_energy:           -0.714999
##########           Internal_energy_repulsive:            6.917868

@<TRIPOS>MOLECULE
ZINC000992031068
 47 49 1 0 0
SMALL
USER_CHARGES


@<TRIPOS>ATOM
      1 C1        -11.6253   -0.7587   54.7393 C.3     1  ZINC000992031068   -0.1100
      2 C2        -10.5473   -0.3949   53.7510 C.ar    1  ZINC000992031068    0.1800
      3 C3         -9.5033    0.4390   54.1251 C.ar    1  ZINC000992031068   -0.1700
      4 C4         -8.5295    0.7461   53.1741 C.ar    1  ZINC000992031068    0.1300
      5 C5         -7.3902    1.6328   53.5198 C.2     1  ZINC000992031068    0.5700
      6 O6         -7.0736    1.7897   54.6821 O.2     1  ZINC000992031068   -0.5200
      7 N7         -6.7071    2.2636   52.5443 N.am    1  ZINC000992031068   -0.7100
      8 C8         -5.5816    3.1372   52.8853 C.3     1  ZINC000992031068    0.1300
      9 C9         -4.8033    3.4857   51.6151 C.3     1  ZINC000992031068   -0.1200
     10 C10        -3.3070    3.7427   51.8603 C.3     1  ZINC000992031068   -0.1400
     11 C11        -3.0419    2.9779   50.5528 C.3     1  ZINC000992031068    0.1200
     12 N12        -1.8759    2.0932   50.6165 N.am    1  ZINC000992031068   -0.7200
     13 C13        -0.6415    2.5883   50.3978 C.2     1  ZINC000992031068    0.5200
     14 O14        -0.4960    3.7664   50.1497 O.2     1  ZINC000992031068   -0.5200
     15 C15         0.5576    1.6779   50.4616 C.3     1  ZINC000992031068   -0.0800
     16 C16         0.9943    1.3237   49.0635 C.2     1  ZINC000992031068    0.1000
     17 C17         0.8599    2.1017   47.9645 C.2     1  ZINC000992031068   -0.2500
     18 C18         1.3916    1.4035   46.8753 C.2     1  ZINC000992031068    0.0500
     19 N19         1.8295    0.2479   47.3050 N.2     1  ZINC000992031068   -0.2900
     20 N20         1.5948    0.1761   48.6842 N.pl3   1  ZINC000992031068   -0.3700
     21 C21         1.9331   -0.9495   49.5586 C.3     1  ZINC000992031068    0.1000
     22 C22        -4.3773    2.2555   50.7965 C.3     1  ZINC000992031068   -0.1400
     23 N23        -8.6388    0.2305   51.9522 N.ar    1  ZINC000992031068   -0.5000
     24 C24        -9.6469   -0.5563   51.6419 C.ar    1  ZINC000992031068    0.3000
     25 N25       -10.5814   -0.8704   52.5180 N.ar    1  ZINC000992031068   -0.5100
     26 H26       -11.3357   -1.6616   55.2769 H       1  ZINC000992031068    0.0900
     27 H27       -11.7595    0.0586   55.4479 H       1  ZINC000992031068    0.0900
     28 H28       -12.5604   -0.9363   54.2081 H       1  ZINC000992031068    0.0900
     29 H29        -9.4461    0.8402   55.1262 H       1  ZINC000992031068    0.1600
     30 H30        -6.9605    2.1392   51.6163 H       1  ZINC000992031068    0.4100
     31 H31        -5.9576    4.0520   53.3436 H       1  ZINC000992031068    0.0700
     32 H32        -4.9227    2.6242   53.5860 H       1  ZINC000992031068    0.0800
     33 H33        -5.2887    4.2593   51.0201 H       1  ZINC000992031068    0.1000
     34 H34        -3.0315    4.7962   51.8135 H       1  ZINC000992031068    0.0800
     35 H35        -2.9174    3.2412   52.7462 H       1  ZINC000992031068    0.0900
     36 H36        -3.0429    3.6135   49.6673 H       1  ZINC000992031068    0.1200
     37 H37        -1.9922    1.1512   50.8162 H       1  ZINC000992031068    0.4000
     38 H38         1.3719    2.1851   50.9791 H       1  ZINC000992031068    0.1200
     39 H39         0.2948    0.7682   51.0016 H       1  ZINC000992031068    0.1100
     40 H40         0.4195    3.0873   47.9338 H       1  ZINC000992031068    0.1500
     41 H41         1.4330    1.7571   45.8556 H       1  ZINC000992031068    0.1800
     42 H42         2.9397   -0.8129   49.9537 H       1  ZINC000992031068    0.0800
     43 H43         1.2221   -0.9952   50.3835 H       1  ZINC000992031068    0.0800
     44 H44         1.8891   -1.8779   48.9891 H       1  ZINC000992031068    0.0900
     45 H45        -4.2803    1.3474   51.3916 H       1  ZINC000992031068    0.0900
     46 H46        -4.9658    2.1085   49.8909 H       1  ZINC000992031068    0.0800
     47 H47        -9.7086   -0.9596   50.6420 H       1  ZINC000992031068    0.2100
@<TRIPOS>BOND
     1     1     2    1
     2     1    26    1
     3     1    27    1
     4     1    28    1
     5     2    25   ar
     6     2     3   ar
     7     3     4   ar
     8     3    29    1
     9     4     5    1
    10     4    23   ar
    11     5     6    2
    12     5     7   am
    13     7     8    1
    14     7    30    1
    15     8     9    1
    16     8    31    1
    17     8    32    1
    18     9    22    1
    19     9    10    1
    20     9    33    1
    21    10    11    1
    22    10    34    1
    23    10    35    1
    24    11    12    1
    25    11    22    1
    26    11    36    1
    27    12    13   am
    28    12    37    1
    29    13    14    2
    30    13    15    1
    31    15    16    1
    32    15    38    1
    33    15    39    1
    34    16    20    1
    35    16    17    2
    36    17    18    1
    37    17    40    1
    38    18    19    2
    39    18    41    1
    40    19    20    1
    41    20    21    1
    42    21    42    1
    43    21    43    1
    44    21    44    1
    45    22    45    1
    46    22    46    1
    47    23    24   ar
    48    24    25   ar
    49    24    47    1
@<TRIPOS>SUBSTRUCTURE
     1 ZINC000992031068        1 TEMP              0 ****  ****    0 ROOT


##########                                Name:    ZINC000182044395
##########                DOCK_Rotatable_Bonds:                   8
##########                         Heavy_Atoms:                  28
##########                    Molecular_Weight:             398.889
##########                DOCK_Rotatable_Bonds:                   8
##########                       Formal_Charge:          -0.0399999
##########                     HBond_Acceptors:                   6
##########                        HBond_Donors:                   2
##########                         Heavy_Atoms:                  28
##########                          Grid_Score:          -31.661245
##########                     Grid_vdw_energy:          -30.031218
##########                      Grid_es_energy:           -1.630028
##########           Internal_energy_repulsive:           16.436558

@<TRIPOS>MOLECULE
ZINC000182044395
 51 53 1 0 0
SMALL
USER_CHARGES


@<TRIPOS>ATOM
      1 C1         -9.6001   -0.5927   52.3523 C.3     1  ZINC000182044395   -0.1800
      2 C2         -9.8754    0.8877   52.6238 C.3     1  ZINC000182044395    0.0800
      3 N3         -8.8736    1.4075   53.5578 N.pl3   1  ZINC000182044395   -0.4800
      4 C4         -7.8103    2.0544   53.0629 C.2     1  ZINC000182044395    0.2500
      5 C5         -6.8226    2.5739   53.8739 C.2     1  ZINC000182044395   -0.3500
      6 C6         -5.6701    3.2786   53.2910 C.2     1  ZINC000182044395    0.5900
      7 O7         -5.8433    4.2844   52.6292 O.2     1  ZINC000182044395   -0.5600
      8 N8         -4.4223    2.8095   53.4901 N.am    1  ZINC000182044395   -0.7200
      9 C9         -3.2747    3.5112   52.9096 C.3     1  ZINC000182044395    0.1100
     10 H10        -3.5899    4.4930   52.5564 H       1  ZINC000182044395    0.0900
     11 C11        -2.1870    3.6767   53.9728 C.3     1  ZINC000182044395   -0.1600
     12 C12        -2.7216    2.7002   51.7360 C.3     1  ZINC000182044395    0.1100
     13 H13        -2.0588    1.9213   52.1131 H       1  ZINC000182044395    0.1100
     14 O14        -3.8028    2.1002   51.0200 O.3     1  ZINC000182044395   -0.5500
     15 C15        -1.9409    3.6250   50.8000 C.3     1  ZINC000182044395   -0.1100
     16 C16        -1.2487    2.8027   49.7438 C.ar    1  ZINC000182044395   -0.0800
     17 C17         0.0325    2.3323   49.9634 C.ar    1  ZINC000182044395   -0.1000
     18 C18         0.6676    1.5783   48.9943 C.ar    1  ZINC000182044395   -0.1200
     19 C19         0.0212    1.2940   47.8060 C.ar    1  ZINC000182044395   -0.1200
     20 C20        -1.2582    1.7684   47.5844 C.ar    1  ZINC000182044395   -0.1200
     21 C21        -1.8948    2.5191   48.5551 C.ar    1  ZINC000182044395   -0.1200
     22 C22        -6.9378    2.4063   55.3312 C.2     1  ZINC000182044395    0.4400
     23 O23        -6.0894    2.8421   56.0895 O.2     1  ZINC000182044395   -0.4900
     24 C24        -8.1262    1.6931   55.8355 C.ar    1  ZINC000182044395   -0.1800
     25 C25        -8.3213    1.4924   57.2016 C.ar    1  ZINC000182044395   -0.0200
     26 C26        -9.4406    0.8158   57.6373 C.ar    1  ZINC000182044395   -0.0700
     27 Cl27       -9.6902    0.5614   59.3364 Cl      1  ZINC000182044395   -0.0500
     28 C28       -10.3695    0.3373   56.7228 C.ar    1  ZINC000182044395   -0.0500
     29 C29       -10.1888    0.5295   55.3706 C.ar    1  ZINC000182044395   -0.1600
     30 C30        -9.0652    1.2097   54.9084 C.ar    1  ZINC000182044395    0.1900
     31 H31        -9.6521   -1.1494   53.2880 H       1  ZINC000182044395    0.0700
     32 H32       -10.3455   -0.9794   51.6574 H       1  ZINC000182044395    0.0800
     33 H33        -8.6064   -0.7037   51.9183 H       1  ZINC000182044395    0.0700
     34 H34       -10.8691    0.9988   53.0579 H       1  ZINC000182044395    0.1000
     35 H35        -9.8232    1.4445   51.6881 H       1  ZINC000182044395    0.1100
     36 H36        -7.7233    2.1736   51.9930 H       1  ZINC000182044395    0.1800
     37 H37        -4.2842    2.0075   54.0179 H       1  ZINC000182044395    0.4100
     38 H38        -2.5811    4.2544   54.8089 H       1  ZINC000182044395    0.0600
     39 H39        -1.8718    2.6949   54.3261 H       1  ZINC000182044395    0.0600
     40 H40        -1.3332    4.1987   53.5409 H       1  ZINC000182044395    0.0600
     41 H41        -4.2457    1.3876   51.5009 H       1  ZINC000182044395    0.3700
     42 H42        -1.1980    4.1795   51.3735 H       1  ZINC000182044395    0.0800
     43 H43        -2.6282    4.3242   50.3237 H       1  ZINC000182044395    0.0800
     44 H44         0.5373    2.5541   50.8920 H       1  ZINC000182044395    0.1200
     45 H45         1.6687    1.2112   49.1658 H       1  ZINC000182044395    0.1200
     46 H46         0.5173    0.7049   47.0489 H       1  ZINC000182044395    0.1200
     47 H47        -1.7615    1.5500   46.6541 H       1  ZINC000182044395    0.1200
     48 H48        -2.8957    2.8868   48.3833 H       1  ZINC000182044395    0.1200
     49 H49        -7.5999    1.8646   57.9139 H       1  ZINC000182044395    0.1500
     50 H50       -11.2431   -0.1907   57.0753 H       1  ZINC000182044395    0.1500
     51 H51       -10.9186    0.1528   54.6694 H       1  ZINC000182044395    0.1500
@<TRIPOS>BOND
     1     1     2    1
     2     1    31    1
     3     1    32    1
     4     1    33    1
     5     2     3    1
     6     2    34    1
     7     2    35    1
     8     3    30    1
     9     3     4    1
    10     4     5    2
    11     4    36    1
    12     5     6    1
    13     5    22    1
    14     6     7    2
    15     6     8   am
    16     8     9    1
    17     8    37    1
    18     9    10    1
    19     9    11    1
    20     9    12    1
    21    11    38    1
    22    11    39    1
    23    11    40    1
    24    12    13    1
    25    12    14    1
    26    12    15    1
    27    14    41    1
    28    15    16    1
    29    15    42    1
    30    15    43    1
    31    16    21   ar
    32    16    17   ar
    33    17    18   ar
    34    17    44    1
    35    18    19   ar
    36    18    45    1
    37    19    20   ar
    38    19    46    1
    39    20    21   ar
    40    20    47    1
    41    21    48    1
    42    22    23    2
    43    22    24    1
    44    24    30   ar
    45    24    25   ar
    46    25    26   ar
    47    25    49    1
    48    26    27    1
    49    26    28   ar
    50    28    29   ar
    51    28    50    1
    52    29    30   ar
    53    29    51    1
@<TRIPOS>SUBSTRUCTURE
     1 ZINC000182044395        1 TEMP              0 ****  ****    0 ROOT


##########                                Name:    ZINC000179496896
##########                DOCK_Rotatable_Bonds:                   8
##########                         Heavy_Atoms:                  27
##########                    Molecular_Weight:             396.504
##########                DOCK_Rotatable_Bonds:                   8
##########                       Formal_Charge:          0.00999944
##########                     HBond_Acceptors:                   8
##########                        HBond_Donors:                   1
##########                         Heavy_Atoms:                  27
##########                          Grid_Score:          -31.654299
##########                     Grid_vdw_energy:          -30.675819
##########                      Grid_es_energy:           -0.978479
##########           Internal_energy_repulsive:           30.936697

@<TRIPOS>MOLECULE
ZINC000179496896
 53 55 1 0 0
SMALL
USER_CHARGES


@<TRIPOS>ATOM
      1 C1         -5.6111    5.2171   53.7372 C.3     1  ZINC000179496896   -0.1500
      2 C2         -4.5543    4.5463   54.6171 C.3     1  ZINC000179496896   -0.1100
      3 C3         -4.8924    4.7829   56.0904 C.3     1  ZINC000179496896   -0.1400
      4 C4         -4.5341    3.0430   54.3335 C.3     1  ZINC000179496896    0.1200
      5 N5         -4.2103    2.8164   52.9228 N.pl3   1  ZINC000179496896   -0.3300
      6 N6         -5.1097    2.4030   51.9336 N.2     1  ZINC000179496896   -0.2700
      7 C7         -4.4740    2.3056   50.7987 C.2     1  ZINC000179496896    0.0800
      8 C8         -3.1242    2.6581   51.0220 C.2     1  ZINC000179496896   -0.2500
      9 C9         -2.0491    2.6877   50.0137 C.2     1  ZINC000179496896    0.5900
     10 O10        -2.3226    2.6184   48.8308 O.2     1  ZINC000179496896   -0.5300
     11 N11        -0.7628    2.7916   50.4029 N.am    1  ZINC000179496896   -0.7100
     12 C12         0.3057    2.8192   49.4009 C.3     1  ZINC000179496896    0.1300
     13 C13         0.6669    1.3872   49.0012 C.3     1  ZINC000179496896    0.0700
     14 H14        -0.0929    0.7022   49.3775 H       1  ZINC000179496896    0.0900
     15 C15         0.7350    1.2852   47.4761 C.3     1  ZINC000179496896   -0.1900
     16 N16         1.9723    1.0332   49.5743 N.3     1  ZINC000179496896   -0.5300
     17 C17         3.0654    1.6786   48.8334 C.3     1  ZINC000179496896    0.0600
     18 C18         4.3451    1.6216   49.6765 C.3     1  ZINC000179496896   -0.0400
     19 C19         4.5201    0.2004   50.1689 C.2     1  ZINC000179496896   -0.1700
     20 C20         3.5439   -0.7288   50.1498 C.2     1  ZINC000179496896   -0.1100
     21 C21         3.9394   -1.9635   50.6513 C.2     1  ZINC000179496896   -0.1200
     22 C22         5.2002   -2.0388   51.0682 C.2     1  ZINC000179496896   -0.2200
     23 S23         5.9910   -0.4855   50.8394 S.3     1  ZINC000179496896    0.1000
     24 C24         2.1481   -0.4245   49.6229 C.3     1  ZINC000179496896    0.1200
     25 C25        -3.0020    2.9761   52.3598 C.2     1  ZINC000179496896    0.0700
     26 C26        -1.7416    3.4122   53.0614 C.3     1  ZINC000179496896    0.3400
     27 F27        -1.6407    4.8068   53.0151 F       1  ZINC000179496896   -0.1500
     28 F28        -1.7809    2.9916   54.3951 F       1  ZINC000179496896   -0.2000
     29 H29        -5.6255    6.2881   53.9393 H       1  ZINC000179496896    0.0600
     30 H30        -5.3702    5.0486   52.6877 H       1  ZINC000179496896    0.0600
     31 H31        -6.5904    4.7926   53.9580 H       1  ZINC000179496896    0.0600
     32 H32        -3.5749    4.9709   54.3963 H       1  ZINC000179496896    0.0800
     33 H33        -5.8717    4.3582   56.3111 H       1  ZINC000179496896    0.0600
     34 H34        -4.1395    4.3050   56.7172 H       1  ZINC000179496896    0.0600
     35 H35        -4.9068    5.8539   56.2925 H       1  ZINC000179496896    0.0700
     36 H36        -3.7812    2.5651   54.9603 H       1  ZINC000179496896    0.1000
     37 H37        -5.5134    2.6184   54.5543 H       1  ZINC000179496896    0.1000
     38 H38        -4.9041    2.0073   49.8540 H       1  ZINC000179496896    0.2000
     39 H39        -0.5446    2.8480   51.3463 H       1  ZINC000179496896    0.4100
     40 H40        -0.0345    3.3669   48.5221 H       1  ZINC000179496896    0.0700
     41 H41         1.1833    3.3120   49.8191 H       1  ZINC000179496896    0.0700
     42 H42         0.9924    0.2651   47.1913 H       1  ZINC000179496896    0.0600
     43 H43        -0.2337    1.5479   47.0508 H       1  ZINC000179496896    0.0700
     44 H44         1.4948    1.9701   47.0997 H       1  ZINC000179496896    0.0600
     45 H45         3.2262    1.1546   47.8912 H       1  ZINC000179496896    0.0400
     46 H46         2.8064    2.7183   48.6338 H       1  ZINC000179496896    0.0900
     47 H47         5.2014    1.9077   49.0659 H       1  ZINC000179496896    0.0800
     48 H48         4.2560    2.2975   50.5269 H       1  ZINC000179496896    0.0900
     49 H49         3.2664   -2.8068   50.6996 H       1  ZINC000179496896    0.1400
     50 H50         5.6670   -2.9197   51.4838 H       1  ZINC000179496896    0.1600
     51 H51         1.4028   -0.8609   50.2878 H       1  ZINC000179496896    0.0900
     52 H52         2.0366   -0.8399   48.6214 H       1  ZINC000179496896    0.0500
     53 H53        -0.8779    2.9688   52.5660 H       1  ZINC000179496896    0.1300
@<TRIPOS>BOND
     1     1     2    1
     2     1    29    1
     3     1    30    1
     4     1    31    1
     5     2     3    1
     6     2     4    1
     7     2    32    1
     8     3    33    1
     9     3    34    1
    10     3    35    1
    11     4     5    1
    12     4    36    1
    13     4    37    1
    14     5    25    1
    15     5     6    1
    16     6     7    2
    17     7     8    1
    18     7    38    1
    19     8     9    1
    20     8    25    2
    21     9    10    2
    22     9    11   am
    23    11    12    1
    24    11    39    1
    25    12    13    1
    26    12    40    1
    27    12    41    1
    28    13    14    1
    29    13    15    1
    30    13    16    1
    31    15    42    1
    32    15    43    1
    33    15    44    1
    34    16    24    1
    35    16    17    1
    36    17    18    1
    37    17    45    1
    38    17    46    1
    39    18    19    1
    40    18    47    1
    41    18    48    1
    42    19    23    1
    43    19    20    2
    44    20    21    1
    45    20    24    1
    46    21    22    2
    47    21    49    1
    48    22    23    1
    49    22    50    1
    50    24    51    1
    51    24    52    1
    52    25    26    1
    53    26    27    1
    54    26    28    1
    55    26    53    1
@<TRIPOS>SUBSTRUCTURE
     1 ZINC000179496896        1 TEMP              0 ****  ****    0 ROOT


##########                                Name:    ZINC000174621331
##########                DOCK_Rotatable_Bonds:                   8
##########                         Heavy_Atoms:                  25
##########                    Molecular_Weight:             366.438
##########                DOCK_Rotatable_Bonds:                   8
##########                       Formal_Charge:        -5.96046e-08
##########                     HBond_Acceptors:                   8
##########                        HBond_Donors:                   3
##########                         Heavy_Atoms:                  25
##########                          Grid_Score:          -31.633471
##########                     Grid_vdw_energy:          -29.219700
##########                      Grid_es_energy:           -2.413770
##########           Internal_energy_repulsive:           15.054175

@<TRIPOS>MOLECULE
ZINC000174621331
 47 48 1 0 0
SMALL
USER_CHARGES


@<TRIPOS>ATOM
      1 C1          2.1418   -0.3432   48.0020 C.3     1  ZINC000174621331    0.0300
      2 O2          1.6897   -0.3132   49.3573 O.3     1  ZINC000174621331   -0.3800
      3 C3          1.4947    1.0040   49.8759 C.3     1  ZINC000174621331    0.0500
      4 C4          0.2638    1.6332   49.2204 C.3     1  ZINC000174621331    0.2400
      5 H5         -0.1347    0.9529   48.4677 H       1  ZINC000174621331    0.1300
      6 N6         -0.7574    1.8855   50.2402 N.am    1  ZINC000174621331   -0.7200
      7 C7         -1.9664    2.3599   49.8801 C.2     1  ZINC000174621331    0.5600
      8 O8         -2.2091    2.5798   48.7096 O.2     1  ZINC000174621331   -0.5300
      9 C9         -2.9976    2.6128   50.9090 C.ar    1  ZINC000174621331   -0.1600
     10 C10        -4.3486    2.6229   50.5595 C.ar    1  ZINC000174621331   -0.0200
     11 C11        -5.3060    2.8591   51.5247 C.ar    1  ZINC000174621331   -0.1100
     12 C12        -6.7653    2.8704   51.1492 C.3     1  ZINC000174621331   -0.1200
     13 C13        -4.9291    3.0852   52.8364 C.ar    1  ZINC000174621331    0.0400
     14 C14        -5.9802    3.3420   53.8854 C.3     1  ZINC000174621331   -0.1600
     15 C15        -3.5911    3.0762   53.1897 C.ar    1  ZINC000174621331   -0.6800
     16 S16        -3.1219    3.3647   54.8634 S.o2    1  ZINC000174621331    2.7000
     17 N17        -1.5377    2.9067   55.0143 N.am    1  ZINC000174621331   -1.2500
     18 O18        -3.1523    4.7728   55.0515 O.2     1  ZINC000174621331   -0.9500
     19 O19        -3.8787    2.4585   55.6541 O.2     1  ZINC000174621331   -0.9600
     20 C20        -2.6243    2.8369   52.2353 C.ar    1  ZINC000174621331    0.0400
     21 C21         0.6526    2.9340   48.5664 C.2     1  ZINC000174621331   -0.0200
     22 C22         0.8794    4.0974   49.2025 C.2     1  ZINC000174621331   -0.1900
     23 C23         1.2145    5.0479   48.2110 C.2     1  ZINC000174621331   -0.2100
     24 C24         1.1725    4.4085   47.0283 C.2     1  ZINC000174621331    0.0000
     25 C25         1.4600    5.0240   45.6830 C.3     1  ZINC000174621331   -0.0800
     26 O26         0.8374    3.1270   47.2502 O.3     1  ZINC000174621331   -0.1600
     27 H27         1.4081    0.1486   47.3633 H       1  ZINC000174621331    0.0400
     28 H28         3.0966    0.1771   47.9258 H       1  ZINC000174621331    0.0400
     29 H29         2.2655   -1.3781   47.6830 H       1  ZINC000174621331    0.0900
     30 H30         1.3452    0.9514   50.9543 H       1  ZINC000174621331    0.0700
     31 H31         2.3726    1.6131   49.6601 H       1  ZINC000174621331    0.0700
     32 H32        -0.5633    1.7111   51.1744 H       1  ZINC000174621331    0.4100
     33 H33        -4.6442    2.4465   49.5359 H       1  ZINC000174621331    0.1400
     34 H34        -7.1740    1.8648   51.2491 H       1  ZINC000174621331    0.0800
     35 H35        -7.3052    3.5492   51.8094 H       1  ZINC000174621331    0.0800
     36 H36        -6.8725    3.2052   50.1175 H       1  ZINC000174621331    0.0700
     37 H37        -6.2903    2.3956   54.3283 H       1  ZINC000174621331    0.1100
     38 H38        -5.5694    3.9889   54.6606 H       1  ZINC000174621331    0.0700
     39 H39        -6.8411    3.8275   53.4257 H       1  ZINC000174621331    0.0900
     40 H40        -1.2779    1.9907   54.8293 H       1  ZINC000174621331    0.4200
     41 H41        -0.8695    3.5545   55.2878 H       1  ZINC000174621331    0.4200
     42 H42        -1.5805    2.8297   52.5125 H       1  ZINC000174621331    0.1600
     43 H43         0.8168    4.2719   50.2665 H       1  ZINC000174621331    0.1500
     44 H44         1.4572    6.0878   48.3723 H       1  ZINC000174621331    0.1500
     45 H45         2.5217    4.9247   45.4574 H       1  ZINC000174621331    0.0800
     46 H46         0.8765    4.5128   44.9175 H       1  ZINC000174621331    0.0800
     47 H47         1.1897    6.0798   45.7013 H       1  ZINC000174621331    0.0900
@<TRIPOS>BOND
     1     1     2    1
     2     1    27    1
     3     1    28    1
     4     1    29    1
     5     2     3    1
     6     3     4    1
     7     3    30    1
     8     3    31    1
     9     4     5    1
    10     4     6    1
    11     4    21    1
    12     6     7   am
    13     6    32    1
    14     7     8    2
    15     7     9    1
    16     9    20   ar
    17     9    10   ar
    18    10    11   ar
    19    10    33    1
    20    11    12    1
    21    11    13   ar
    22    12    34    1
    23    12    35    1
    24    12    36    1
    25    13    14    1
    26    13    15   ar
    27    14    37    1
    28    14    38    1
    29    14    39    1
    30    15    16    1
    31    15    20   ar
    32    16    17   am
    33    16    18    2
    34    16    19    2
    35    17    40    1
    36    17    41    1
    37    20    42    1
    38    21    26    1
    39    21    22    2
    40    22    23    1
    41    22    43    1
    42    23    24    2
    43    23    44    1
    44    24    25    1
    45    24    26    1
    46    25    45    1
    47    25    46    1
    48    25    47    1
@<TRIPOS>SUBSTRUCTURE
     1 ZINC000174621331        1 TEMP              0 ****  ****    0 ROOT


##########                                Name:    ZINC001207290212
##########                DOCK_Rotatable_Bonds:                   8
##########                         Heavy_Atoms:                  23
##########                    Molecular_Weight:             344.435
##########                DOCK_Rotatable_Bonds:                   8
##########                       Formal_Charge:               -0.03
##########                     HBond_Acceptors:                   9
##########                        HBond_Donors:                   2
##########                         Heavy_Atoms:                  23
##########                          Grid_Score:          -31.580191
##########                     Grid_vdw_energy:          -30.150124
##########                      Grid_es_energy:           -1.430068
##########           Internal_energy_repulsive:            5.134033

@<TRIPOS>MOLECULE
ZINC001207290212
 47 48 1 0 0
SMALL
USER_CHARGES


@<TRIPOS>ATOM
      1 C1         -2.0750    2.7881   48.8486 C.3     1  ZINC001207290212   -0.1500
      2 C2         -1.9570    2.2380   50.2715 C.3     1  ZINC001207290212   -0.6300
      3 S3         -2.7623    3.3786   51.4294 S.o2    1  ZINC001207290212    2.6100
      4 O4         -2.7560    2.8409   52.7448 O.2     1  ZINC001207290212   -0.9500
      5 O5         -2.3477    4.7152   51.1825 O.2     1  ZINC001207290212   -0.9500
      6 N6         -4.3581    3.3578   50.9875 N.am    1  ZINC001207290212   -1.1100
      7 C7         -5.1120    2.1022   51.0240 C.3     1  ZINC001207290212    0.0900
      8 C8         -6.4697    2.3489   51.6298 C.2     1  ZINC001207290212    0.5100
      9 O9         -7.0254    3.4134   51.4594 O.2     1  ZINC001207290212   -0.5300
     10 N10        -7.0663    1.3867   52.3608 N.am    1  ZINC001207290212   -0.7200
     11 C11        -8.3869    1.6258   52.9482 C.3     1  ZINC001207290212    0.1400
     12 H12        -8.9990    2.2218   52.2714 H       1  ZINC001207290212    0.1000
     13 C13        -8.2467    2.3361   54.3074 C.3     1  ZINC001207290212    0.0200
     14 N14        -8.8064    1.4276   55.3315 N.3     1  ZINC001207290212   -0.5100
     15 C15        -9.4596    2.1855   56.4071 C.3     1  ZINC001207290212    0.1300
     16 C16        -8.9708    1.6857   57.7421 C.2     1  ZINC001207290212    0.0000
     17 C17        -8.5597    2.4454   58.7708 C.2     1  ZINC001207290212   -0.0700
     18 O18        -8.2091    1.6083   59.7668 O.3     1  ZINC001207290212   -0.2000
     19 C19        -8.4092    0.3553   59.3368 C.2     1  ZINC001207290212    0.1900
     20 C20        -8.1474   -0.8978   60.1319 C.3     1  ZINC001207290212   -0.0600
     21 N21        -8.8732    0.3990   58.1205 N.2     1  ZINC001207290212   -0.4700
     22 C22        -9.7836    0.5661   54.6180 C.3     1  ZINC001207290212    0.0400
     23 C23        -9.0857    0.2830   53.2621 C.3     1  ZINC001207290212   -0.1000
     24 H24        -8.3528   -0.5172   53.3652 H       1  ZINC001207290212    0.0900
     25 C25       -10.1157   -0.0641   52.1852 C.3     1  ZINC001207290212   -0.1400
     26 H26        -3.1276    2.8904   48.5848 H       1  ZINC001207290212    0.0700
     27 H27        -1.5904    3.7628   48.7946 H       1  ZINC001207290212    0.0700
     28 H28        -1.5910    2.1027   48.1529 H       1  ZINC001207290212    0.0800
     29 H29        -2.4416    1.2631   50.3255 H       1  ZINC001207290212    0.1300
     30 H30        -0.9044    2.1356   50.5353 H       1  ZINC001207290212    0.1300
     31 H31        -4.7937    4.1770   50.7044 H       1  ZINC001207290212    0.4300
     32 H32        -5.2305    1.7200   50.0101 H       1  ZINC001207290212    0.1000
     33 H33        -4.5724    1.3719   51.6270 H       1  ZINC001207290212    0.1100
     34 H34        -6.6213    0.5357   52.4981 H       1  ZINC001207290212    0.4100
     35 H35        -7.1950    2.5303   54.5181 H       1  ZINC001207290212    0.0800
     36 H36        -8.8050    3.2723   54.2965 H       1  ZINC001207290212    0.0500
     37 H37        -9.2181    3.2434   56.3046 H       1  ZINC001207290212    0.0600
     38 H38       -10.5394    2.0514   56.3420 H       1  ZINC001207290212    0.1000
     39 H39        -8.5176    3.5244   58.7949 H       1  ZINC001207290212    0.2100
     40 H40        -7.7672   -0.6298   61.1177 H       1  ZINC001207290212    0.0900
     41 H41        -9.0751   -1.4595   60.2407 H       1  ZINC001207290212    0.1000
     42 H42        -7.4105   -1.5105   59.6124 H       1  ZINC001207290212    0.1000
     43 H43        -9.9509   -0.3611   55.1659 H       1  ZINC001207290212    0.0900
     44 H44       -10.7228    1.0970   54.4624 H       1  ZINC001207290212    0.0500
     45 H45       -10.8203    0.7605   52.0770 H       1  ZINC001207290212    0.0600
     46 H46        -9.6063   -0.2336   51.2365 H       1  ZINC001207290212    0.0600
     47 H47       -10.6541   -0.9665   52.4748 H       1  ZINC001207290212    0.0600
@<TRIPOS>BOND
     1     1     2    1
     2     1    26    1
     3     1    27    1
     4     1    28    1
     5     2     3    1
     6     2    29    1
     7     2    30    1
     8     3     4    2
     9     3     5    2
    10     3     6   am
    11     6     7    1
    12     6    31    1
    13     7     8    1
    14     7    32    1
    15     7    33    1
    16     8     9    2
    17     8    10   am
    18    10    11    1
    19    10    34    1
    20    11    12    1
    21    11    23    1
    22    11    13    1
    23    13    14    1
    24    13    35    1
    25    13    36    1
    26    14    15    1
    27    14    22    1
    28    15    16    1
    29    15    37    1
    30    15    38    1
    31    16    21    1
    32    16    17    2
    33    17    18    1
    34    17    39    1
    35    18    19    1
    36    19    20    1
    37    19    21    2
    38    20    40    1
    39    20    41    1
    40    20    42    1
    41    22    23    1
    42    22    43    1
    43    22    44    1
    44    23    24    1
    45    23    25    1
    46    25    45    1
    47    25    46    1
    48    25    47    1
@<TRIPOS>SUBSTRUCTURE
     1 ZINC001207290212        1 TEMP              0 ****  ****    0 ROOT


##########                                Name:    ZINC001591898574
##########                DOCK_Rotatable_Bonds:                  10
##########                         Heavy_Atoms:                  26
##########                    Molecular_Weight:             383.434
##########                DOCK_Rotatable_Bonds:                  10
##########                       Formal_Charge:         5.96046e-08
##########                     HBond_Acceptors:                  13
##########                        HBond_Donors:                   3
##########                         Heavy_Atoms:                  26
##########                          Grid_Score:          -31.547089
##########                     Grid_vdw_energy:          -31.254847
##########                      Grid_es_energy:           -0.292243
##########           Internal_energy_repulsive:            9.025033

@<TRIPOS>MOLECULE
ZINC001591898574
 47 48 1 0 0
SMALL
USER_CHARGES


@<TRIPOS>ATOM
      1 C1        -12.7125    2.4111   52.3090 C.3     1  ZINC001591898574   -0.1100
      2 C2        -11.6579    1.3651   52.5640 C.ar    1  ZINC001591898574    0.2300
      3 C3        -10.3805    1.5217   52.0562 C.ar    1  ZINC001591898574   -0.2400
      4 C4         -9.4341    0.5278   52.3171 C.ar    1  ZINC001591898574    0.3000
      5 C5         -8.0503    0.6497   51.7951 C.2     1  ZINC001591898574    0.2100
      6 N6         -7.2345   -0.3394   51.4881 N.2     1  ZINC001591898574   -0.2500
      7 N7         -6.1297    0.1760   51.0702 N.pl3   1  ZINC001591898574   -0.2200
      8 N8         -6.2194    1.4597   51.1025 N.2     1  ZINC001591898574   -0.0400
      9 N9         -7.3885    1.7870   51.5384 N.2     1  ZINC001591898574   -0.2500
     10 N10        -9.7921   -0.5295   53.0412 N.ar    1  ZINC001591898574   -0.5500
     11 C11       -11.0258   -0.6402   53.5085 C.ar    1  ZINC001591898574    0.5800
     12 N12       -11.3655   -1.7530   54.2584 N.pl3   1  ZINC001591898574   -0.7000
     13 C13       -11.1049   -1.7723   55.6999 C.3     1  ZINC001591898574    0.1400
     14 C14       -12.1840   -0.9646   56.4240 C.3     1  ZINC001591898574   -0.1500
     15 C15       -12.2772   -1.4277   57.8792 C.3     1  ZINC001591898574    0.1200
     16 N16       -11.6498   -0.4307   58.7501 N.am    1  ZINC001591898574   -0.7300
     17 C17       -10.4046   -0.6369   59.2228 C.2     1  ZINC001591898574    0.4900
     18 O18        -9.8029   -1.6473   58.9261 O.2     1  ZINC001591898574   -0.5300
     19 C19        -9.7599    0.3879   60.1201 C.3     1  ZINC001591898574    0.1000
     20 N20        -9.9632    0.0079   61.5203 N.am    1  ZINC001591898574   -0.9800
     21 C21       -11.2690   -0.4877   61.9627 C.3     1  ZINC001591898574    0.1000
     22 S22        -8.7170    0.1385   62.6031 S.o2    1  ZINC001591898574    2.6100
     23 C23        -8.2844    1.9001   62.5848 C.3     1  ZINC001591898574   -0.6600
     24 O24        -9.2970   -0.2197   63.8498 O.2     1  ZINC001591898574   -0.9500
     25 O25        -7.6729   -0.6373   62.0308 O.2     1  ZINC001591898574   -0.9600
     26 N26       -11.9423    0.2893   53.2808 N.ar    1  ZINC001591898574   -0.5600
     27 H27       -12.6829    3.1578   53.1025 H       1  ZINC001591898574    0.0900
     28 H28       -12.5223    2.8926   51.3498 H       1  ZINC001591898574    0.0900
     29 H29       -13.6950    1.9395   52.2904 H       1  ZINC001591898574    0.0900
     30 H30       -10.1211    2.3918   51.4713 H       1  ZINC001591898574    0.1600
     31 H31        -5.3524   -0.3250   50.7772 H       1  ZINC001591898574    0.4800
     32 H32       -11.7762   -2.5199   53.8294 H       1  ZINC001591898574    0.4200
     33 H33       -11.1199   -2.8017   56.0580 H       1  ZINC001591898574    0.0700
     34 H34       -10.1275   -1.3327   55.8983 H       1  ZINC001591898574    0.0700
     35 H35       -11.9261    0.0940   56.3954 H       1  ZINC001591898574    0.0800
     36 H36       -13.1443   -1.1181   55.9317 H       1  ZINC001591898574    0.0800
     37 H37       -13.3247   -1.5450   58.1569 H       1  ZINC001591898574    0.0700
     38 H38       -11.7628   -2.3823   57.9904 H       1  ZINC001591898574    0.0700
     39 H39       -12.1305    0.3780   58.9865 H       1  ZINC001591898574    0.4000
     40 H40        -8.6919    0.4359   59.9082 H       1  ZINC001591898574    0.1200
     41 H41       -10.2104    1.3638   59.9395 H       1  ZINC001591898574    0.1300
     42 H42       -11.3021   -1.5718   61.8537 H       1  ZINC001591898574    0.0600
     43 H43       -11.4227   -0.2228   63.0087 H       1  ZINC001591898574    0.0700
     44 H44       -12.0535   -0.0373   61.3547 H       1  ZINC001591898574    0.0700
     45 H45        -9.1498    2.4898   62.8874 H       1  ZINC001591898574    0.1300
     46 H46        -7.4622    2.0795   63.2777 H       1  ZINC001591898574    0.1200
     47 H47        -7.9813    2.1895   61.5787 H       1  ZINC001591898574    0.1300
@<TRIPOS>BOND
     1     1     2    1
     2     1    27    1
     3     1    28    1
     4     1    29    1
     5     2    26   ar
     6     2     3   ar
     7     3     4   ar
     8     3    30    1
     9     4     5    1
    10     4    10   ar
    11     5     9    1
    12     5     6    2
    13     6     7    1
    14     7     8    1
    15     7    31    1
    16     8     9    2
    17    10    11   ar
    18    11    12    1
    19    11    26   ar
    20    12    13    1
    21    12    32    1
    22    13    14    1
    23    13    33    1
    24    13    34    1
    25    14    15    1
    26    14    35    1
    27    14    36    1
    28    15    16    1
    29    15    37    1
    30    15    38    1
    31    16    17   am
    32    16    39    1
    33    17    18    2
    34    17    19    1
    35    19    20    1
    36    19    40    1
    37    19    41    1
    38    20    21    1
    39    20    22   am
    40    21    42    1
    41    21    43    1
    42    21    44    1
    43    22    23    1
    44    22    24    2
    45    22    25    2
    46    23    45    1
    47    23    46    1
    48    23    47    1
@<TRIPOS>SUBSTRUCTURE
     1 ZINC001591898574        1 TEMP              0 ****  ****    0 ROOT


##########                                Name:    ZINC000501032137
##########                DOCK_Rotatable_Bonds:                  10
##########                         Heavy_Atoms:                  25
##########                    Molecular_Weight:             407.307
##########                DOCK_Rotatable_Bonds:                  10
##########                       Formal_Charge:           0.0099998
##########                     HBond_Acceptors:                   5
##########                        HBond_Donors:                   1
##########                         Heavy_Atoms:                  25
##########                          Grid_Score:          -31.508478
##########                     Grid_vdw_energy:          -31.807884
##########                      Grid_es_energy:            0.299407
##########           Internal_energy_repulsive:            9.825083

@<TRIPOS>MOLECULE
ZINC000501032137
 48 50 1 0 0
SMALL
USER_CHARGES


@<TRIPOS>ATOM
      1 C1         -5.1557    3.0745   55.9375 C.3     1  ZINC000501032137   -0.1500
      2 C2         -3.8617    3.8906   55.9100 C.3     1  ZINC000501032137   -0.1200
      3 C3         -2.6730    2.9543   55.6834 C.3     1  ZINC000501032137    0.0600
      4 O4         -2.6684    2.5108   54.3250 O.3     1  ZINC000501032137   -0.3800
      5 C5         -2.0229    3.4107   53.4220 C.3     1  ZINC000501032137    0.0500
      6 C6         -2.5403    3.1676   52.0028 C.3     1  ZINC000501032137    0.1600
      7 H7         -2.5211    2.0993   51.7871 H       1  ZINC000501032137    0.1000
      8 C8         -1.6495    3.9060   51.0018 C.3     1  ZINC000501032137   -0.0900
      9 C9         -1.0933    2.9233   50.0039 C.ar    1  ZINC000501032137   -0.0600
     10 C10        -1.7436    2.7162   48.8019 C.ar    1  ZINC000501032137   -0.0900
     11 C11        -1.2338    1.8146   47.8860 C.ar    1  ZINC000501032137   -0.1100
     12 C12        -0.0739    1.1200   48.1719 C.ar    1  ZINC000501032137   -0.0900
     13 C13         0.5773    1.3269   49.3749 C.ar    1  ZINC000501032137   -0.0800
     14 Br14        2.1646    0.3766   49.7669 Br      1  ZINC000501032137   -0.0600
     15 C15         0.0701    2.2330   50.2884 C.ar    1  ZINC000501032137   -0.0800
     16 N16        -3.9143    3.6635   51.8923 N.am    1  ZINC000501032137   -0.7100
     17 C17        -4.9169    2.8113   51.6005 C.2     1  ZINC000501032137    0.6100
     18 O18        -4.6811    1.6305   51.4306 O.2     1  ZINC000501032137   -0.5200
     19 C19        -6.2993    3.3107   51.4876 C.2     1  ZINC000501032137   -0.0800
     20 C20        -7.4320    2.5566   51.4645 C.2     1  ZINC000501032137    0.0800
     21 C21        -7.5111    1.0541   51.5491 C.3     1  ZINC000501032137   -0.0800
     22 C22        -7.6937    0.4332   52.9355 C.3     1  ZINC000501032137   -0.1700
     23 C23        -8.8559    0.4383   51.9404 C.3     1  ZINC000501032137   -0.1500
     24 O24        -8.4655    3.4061   51.3525 O.3     1  ZINC000501032137   -0.2000
     25 C25        -7.9792    4.6545   51.3076 C.2     1  ZINC000501032137    0.1800
     26 N26        -6.6833    4.6125   51.3928 N.2     1  ZINC000501032137   -0.4600
     27 H27        -5.2782    2.5555   54.9868 H       1  ZINC000501032137    0.0600
     28 H28        -5.1083    2.3453   56.7462 H       1  ZINC000501032137    0.0600
     29 H29        -6.0025    3.7416   56.0990 H       1  ZINC000501032137    0.0600
     30 H30        -3.9092    4.6199   55.1013 H       1  ZINC000501032137    0.0700
     31 H31        -3.7393    4.4097   56.8607 H       1  ZINC000501032137    0.0700
     32 H32        -1.7457    3.4866   55.8951 H       1  ZINC000501032137    0.0500
     33 H33        -2.7573    2.0932   56.3465 H       1  ZINC000501032137    0.0500
     34 H34        -2.2386    4.4378   53.7163 H       1  ZINC000501032137    0.0700
     35 H35        -0.9461    3.2433   53.4499 H       1  ZINC000501032137    0.0600
     36 H36        -2.2378    4.6605   50.4795 H       1  ZINC000501032137    0.0900
     37 H37        -0.8289    4.3886   51.5326 H       1  ZINC000501032137    0.0800
     38 H38        -2.6503    3.2587   48.5781 H       1  ZINC000501032137    0.1200
     39 H39        -1.7424    1.6530   46.9470 H       1  ZINC000501032137    0.1300
     40 H40         0.3241    0.4156   47.4565 H       1  ZINC000501032137    0.1300
     41 H41         0.5783    2.3951   51.2275 H       1  ZINC000501032137    0.1200
     42 H42        -4.1025    4.6052   52.0291 H       1  ZINC000501032137    0.4100
     43 H43        -6.8986    0.5099   50.8302 H       1  ZINC000501032137    0.1500
     44 H44        -7.2011   -0.5197   53.1289 H       1  ZINC000501032137    0.1100
     45 H45        -7.7567    1.1113   53.7863 H       1  ZINC000501032137    0.1000
     46 H46        -9.6835    1.1200   52.1367 H       1  ZINC000501032137    0.1000
     47 H47        -9.1280   -0.5112   51.4793 H       1  ZINC000501032137    0.1100
     48 H48        -8.5713    5.5534   51.2185 H       1  ZINC000501032137    0.2500
@<TRIPOS>BOND
     1     1     2    1
     2     1    27    1
     3     1    28    1
     4     1    29    1
     5     2     3    1
     6     2    30    1
     7     2    31    1
     8     3     4    1
     9     3    32    1
    10     3    33    1
    11     4     5    1
    12     5     6    1
    13     5    34    1
    14     5    35    1
    15     6     7    1
    16     6     8    1
    17     6    16    1
    18     8     9    1
    19     8    36    1
    20     8    37    1
    21     9    15   ar
    22     9    10   ar
    23    10    11   ar
    24    10    38    1
    25    11    12   ar
    26    11    39    1
    27    12    13   ar
    28    12    40    1
    29    13    14    1
    30    13    15   ar
    31    15    41    1
    32    16    17   am
    33    16    42    1
    34    17    18    2
    35    17    19    1
    36    19    26    1
    37    19    20    2
    38    20    21    1
    39    20    24    1
    40    21    23    1
    41    21    22    1
    42    21    43    1
    43    22    23    1
    44    22    44    1
    45    22    45    1
    46    23    46    1
    47    23    47    1
    48    24    25    1
    49    25    26    2
    50    25    48    1
@<TRIPOS>SUBSTRUCTURE
     1 ZINC000501032137        1 TEMP              0 ****  ****    0 ROOT


##########                                Name:    ZINC000375302598
##########                DOCK_Rotatable_Bonds:                   8
##########                         Heavy_Atoms:                  27
##########                    Molecular_Weight:             368.479
##########                DOCK_Rotatable_Bonds:                   8
##########                       Formal_Charge:               -0.02
##########                     HBond_Acceptors:                   6
##########                        HBond_Donors:                   1
##########                         Heavy_Atoms:                  27
##########                          Grid_Score:          -31.447218
##########                     Grid_vdw_energy:          -32.855717
##########                      Grid_es_energy:            1.408498
##########           Internal_energy_repulsive:            7.776276

@<TRIPOS>MOLECULE
ZINC000375302598
 55 58 1 0 0
SMALL
USER_CHARGES


@<TRIPOS>ATOM
      1 C1        -10.8988    0.4124   52.5946 C.3     1  ZINC000375302598   -0.1500
      2 C2         -9.6587   -0.4481   52.8452 C.3     1  ZINC000375302598   -0.0300
      3 C3         -8.4418    0.2533   52.2993 C.2     1  ZINC000375302598    0.1800
      4 N4         -8.1439    1.5227   52.4387 N.2     1  ZINC000375302598   -0.4700
      5 C5         -6.9776    1.6941   51.7910 C.2     1  ZINC000375302598    0.1800
      6 C6         -6.2118    2.9853   51.6594 C.3     1  ZINC000375302598    0.1500
      7 N7         -4.7823    2.7318   51.8832 N.3     1  ZINC000375302598   -0.5300
      8 C8         -4.0227    2.8619   50.6332 C.3     1  ZINC000375302598    0.0500
      9 C9         -2.5684    2.4505   50.8734 C.3     1  ZINC000375302598   -0.1100
     10 C10        -1.9618    3.3467   51.9566 C.3     1  ZINC000375302598   -0.1300
     11 C11        -2.7996    3.2298   53.2329 C.3     1  ZINC000375302598    0.1500
     12 H12        -2.7682    2.2025   53.5960 H       1  ZINC000375302598    0.1000
     13 N13        -2.2590    4.1272   54.2568 N.am    1  ZINC000375302598   -0.7300
     14 C14        -1.8476    3.6297   55.4399 C.2     1  ZINC000375302598    0.5200
     15 O15        -1.9264    2.4391   55.6574 O.2     1  ZINC000375302598   -0.5300
     16 C16        -1.2898    4.5526   56.4925 C.3     1  ZINC000375302598   -0.1100
     17 C17        -1.6641    4.0287   57.8804 C.3     1  ZINC000375302598   -0.1200
     18 H18        -2.4686    3.2936   57.9042 H       1  ZINC000375302598    0.1200
     19 C19        -1.5639    5.0046   59.0545 C.3     1  ZINC000375302598   -0.1700
     20 C20        -0.5387    3.8777   58.9057 C.3     1  ZINC000375302598   -0.1100
     21 H21         0.4686    4.1518   58.5917 H       1  ZINC000375302598    0.1100
     22 C22        -0.6269    2.7245   59.8719 C.ar    1  ZINC000375302598   -0.0500
     23 C23        -0.3373    1.4418   59.4455 C.ar    1  ZINC000375302598   -0.1200
     24 C24        -0.4182    0.3841   60.3317 C.ar    1  ZINC000375302598   -0.1200
     25 C25        -0.7882    0.6090   61.6445 C.ar    1  ZINC000375302598   -0.1300
     26 C26        -1.0769    1.8918   62.0711 C.ar    1  ZINC000375302598   -0.1200
     27 C27        -0.9918    2.9502   61.1860 C.ar    1  ZINC000375302598   -0.1100
     28 C28        -4.2473    3.6185   52.9244 C.3     1  ZINC000375302598    0.0500
     29 N29        -6.6323    0.5416   51.2999 N.2     1  ZINC000375302598   -0.3800
     30 O30        -7.4571   -0.3007   51.5855 O.3     1  ZINC000375302598    0.0800
     31 H31       -11.0207    0.5706   51.5230 H       1  ZINC000375302598    0.0600
     32 H32       -11.7789   -0.0949   52.9895 H       1  ZINC000375302598    0.0800
     33 H33       -10.7800    1.3746   53.0927 H       1  ZINC000375302598    0.0600
     34 H34        -9.5367   -0.6063   53.9167 H       1  ZINC000375302598    0.1100
     35 H35        -9.7775   -1.4104   52.3470 H       1  ZINC000375302598    0.1000
     36 H36        -6.3563    3.3931   50.6589 H       1  ZINC000375302598    0.0700
     37 H37        -6.5743    3.6996   52.3987 H       1  ZINC000375302598    0.1100
     38 H38        -4.4619    2.2163   49.8725 H       1  ZINC000375302598    0.0800
     39 H39        -4.0561    3.8971   50.2940 H       1  ZINC000375302598    0.0400
     40 H40        -2.5333    1.4110   51.1993 H       1  ZINC000375302598    0.0700
     41 H41        -2.0013    2.5620   49.9491 H       1  ZINC000375302598    0.0700
     42 H42        -0.9394    3.0292   52.1616 H       1  ZINC000375302598    0.0700
     43 H43        -1.9612    4.3817   51.6148 H       1  ZINC000375302598    0.0600
     44 H44        -2.1970    5.0796   54.0833 H       1  ZINC000375302598    0.4000
     45 H45        -0.2044    4.5947   56.4006 H       1  ZINC000375302598    0.1000
     46 H46        -1.7048    5.5513   56.3571 H       1  ZINC000375302598    0.1000
     47 H47        -1.2312    6.0197   58.8382 H       1  ZINC000375302598    0.1000
     48 H48        -2.3021    4.9112   59.8510 H       1  ZINC000375302598    0.1000
     49 H49        -0.0482    1.2661   58.4198 H       1  ZINC000375302598    0.1200
     50 H50        -0.1927   -0.6181   59.9984 H       1  ZINC000375302598    0.1200
     51 H51        -0.8521   -0.2176   62.3368 H       1  ZINC000375302598    0.1200
     52 H52        -1.3663    2.0675   63.0966 H       1  ZINC000375302598    0.1200
     53 H53        -1.2174    3.9524   61.5193 H       1  ZINC000375302598    0.1200
     54 H54        -4.2796    4.6503   52.5745 H       1  ZINC000375302598    0.0400
     55 H55        -4.8496    3.5225   53.8278 H       1  ZINC000375302598    0.0900
@<TRIPOS>BOND
     1     1     2    1
     2     1    31    1
     3     1    32    1
     4     1    33    1
     5     2     3    1
     6     2    34    1
     7     2    35    1
     8     3    30    1
     9     3     4    2
    10     4     5    1
    11     5     6    1
    12     5    29    2
    13     6     7    1
    14     6    36    1
    15     6    37    1
    16     7    28    1
    17     7     8    1
    18     8     9    1
    19     8    38    1
    20     8    39    1
    21     9    10    1
    22     9    40    1
    23     9    41    1
    24    10    11    1
    25    10    42    1
    26    10    43    1
    27    11    12    1
    28    11    13    1
    29    11    28    1
    30    13    14   am
    31    13    44    1
    32    14    15    2
    33    14    16    1
    34    16    17    1
    35    16    45    1
    36    16    46    1
    37    17    18    1
    38    17    20    1
    39    17    19    1
    40    19    20    1
    41    19    47    1
    42    19    48    1
    43    20    21    1
    44    20    22    1
    45    22    27   ar
    46    22    23   ar
    47    23    24   ar
    48    23    49    1
    49    24    25   ar
    50    24    50    1
    51    25    26   ar
    52    25    51    1
    53    26    27   ar
    54    26    52    1
    55    27    53    1
    56    28    54    1
    57    28    55    1
    58    29    30    1
@<TRIPOS>SUBSTRUCTURE
     1 ZINC000375302598        1 TEMP              0 ****  ****    0 ROOT


##########                                Name:     oleObject15.pdb
##########                DOCK_Rotatable_Bonds:                   9
##########                         Heavy_Atoms:                  29
##########                    Molecular_Weight:             395.545
##########                DOCK_Rotatable_Bonds:                   9
##########                       Formal_Charge:         0.000700183
##########                     HBond_Acceptors:                   5
##########                        HBond_Donors:                   1
##########                         Heavy_Atoms:                  29
##########                          Grid_Score:          -31.446436
##########                     Grid_vdw_energy:          -31.491690
##########                      Grid_es_energy:            0.045254
##########           Internal_energy_repulsive:           15.652540

@<TRIPOS>MOLECULE
oleObject15.pdb
 62 64 1 0 0
SMALL
NO_CHARGES


@<TRIPOS>ATOM
      1 O          -5.8676    1.9291   51.8133 O.3     1  UNL        -0.3745
      2 C          -7.0373    1.9241   52.6626 C.3     1  UNL         0.0600
      3 C          -7.7202    0.5410   52.5527 C.3     1  UNL         0.0217
      4 N          -9.1479    0.5256   52.9484 N.4     1  UNL        -0.3010
      5 C          -9.8047   -0.7976   52.8428 C.3     1  UNL        -0.0010
      6 C         -11.3173   -0.7134   53.1422 C.3     1  UNL        -0.0289
      7 C         -11.6242   -0.0465   54.5047 C.3     1  UNL         0.0382
      8 C         -10.8555    1.2936   54.6253 C.3     1  UNL        -0.0289
      9 C          -9.3575    1.1774   54.2585 C.3     1  UNL        -0.0010
     10 C         -11.3329   -1.0018   55.6886 C.2     1  UNL         0.2156
     11 O         -11.2220   -2.2045   55.5336 O.2     1  UNL        -0.2774
     12 N         -11.1447   -0.4841   56.9637 N.am    1  UNL        -0.3025
     13 C         -10.8602   -1.2283   58.2050 C.3     1  UNL         0.0900
     14 C         -10.0561   -0.4134   59.2164 C.ar    1  UNL        -0.0217
     15 C          -9.1333   -1.0332   60.0831 C.ar    1  UNL        -0.0568
     16 C          -8.4113   -0.2706   61.0157 C.ar    1  UNL        -0.0619
     17 C          -8.6031    1.1180   61.0873 C.ar    1  UNL        -0.0622
     18 C          -9.5157    1.7435   60.2236 C.ar    1  UNL        -0.0619
     19 C         -10.2375    0.9808   59.2909 C.ar    1  UNL        -0.0568
     20 C         -12.1360   -1.7717   58.8417 C.ar    1  UNL         0.0652
     21 C         -12.2071   -2.0748   60.2172 C.ar    1  UNL        -0.0383
     22 C         -13.4069   -2.5805   60.7427 C.ar    1  UNL        -0.0588
     23 C         -14.4937   -2.7669   59.8746 C.ar    1  UNL        -0.0438
     24 C         -14.3365   -2.4406   58.5167 C.ar    1  UNL         0.0272
     25 N         -13.1850   -1.9550   58.0102 N.ar    1  UNL        -0.2590
     26 C          -5.0134    3.0970   51.7795 C.3     1  UNL         0.0599
     27 C          -5.8769    4.3668   51.5730 C.3     1  UNL        -0.0364
     28 C          -4.3371    3.1386   53.1685 C.3     1  UNL        -0.0364
     29 C          -3.9437    2.9412   50.6698 C.3     1  UNL        -0.0364
     30 H          -7.7475    2.6944   52.3389 H       1  UNL         0.0581
     31 H          -6.7742    2.1214   53.7074 H       1  UNL         0.0581
     32 H          -7.1626   -0.1561   53.1911 H       1  UNL         0.0455
     33 H          -7.6235    0.1849   51.5192 H       1  UNL         0.0455
     34 H          -9.3337   -1.5026   53.5398 H       1  UNL         0.0431
     35 H          -9.6905   -1.2024   51.8305 H       1  UNL         0.0431
     36 H         -11.7569   -1.7166   53.1009 H       1  UNL         0.0288
     37 H         -11.7965   -0.1290   52.3459 H       1  UNL         0.0288
     38 H         -12.6858    0.2143   54.5087 H       1  UNL         0.0402
     39 H         -10.9611    1.6982   55.6399 H       1  UNL         0.0288
     40 H         -11.3173    2.0237   53.9480 H       1  UNL         0.0288
     41 H          -8.8339    0.6113   55.0390 H       1  UNL         0.0431
     42 H          -8.9260    2.1865   54.2430 H       1  UNL         0.0431
     43 H         -11.1108    0.5255   57.0234 H       1  UNL         0.1504
     44 H         -10.2609   -2.1018   57.9185 H       1  UNL         0.0624
     45 H          -8.9810   -2.1078   60.0432 H       1  UNL         0.0626
     46 H          -7.7056   -0.7563   61.6834 H       1  UNL         0.0623
     47 H          -8.0451    1.7078   61.8090 H       1  UNL         0.0623
     48 H          -9.6635    2.8184   60.2760 H       1  UNL         0.0623
     49 H         -10.9405    1.4747   58.6260 H       1  UNL         0.0626
     50 H         -11.3502   -1.9221   60.8663 H       1  UNL         0.0643
     51 H         -13.4917   -2.8227   61.7981 H       1  UNL         0.0624
     52 H         -15.4379   -3.1562   60.2440 H       1  UNL         0.0639
     53 H         -15.1571   -2.5724   57.8124 H       1  UNL         0.0840
     54 H          -6.7103    4.3920   52.2867 H       1  UNL         0.0260
     55 H          -6.2921    4.4126   50.5589 H       1  UNL         0.0260
     56 H          -5.2760    5.2726   51.7227 H       1  UNL         0.0260
     57 H          -5.0874    3.2154   53.9661 H       1  UNL         0.0260
     58 H          -3.6626    4.0001   53.2532 H       1  UNL         0.0260
     59 H          -3.7489    2.2287   53.3441 H       1  UNL         0.0260
     60 H          -4.3918    2.9883   49.6696 H       1  UNL         0.0260
     61 H          -3.4178    1.9827   50.7661 H       1  UNL         0.0260
     62 H          -3.1982    3.7438   50.7348 H       1  UNL         0.0260
@<TRIPOS>BOND
     1     1     2    1
     2     1    26    1
     3     2     3    1
     4     2    30    1
     5     2    31    1
     6     3     4    1
     7     3    32    1
     8     3    33    1
     9     4     5    1
    10     4     9    1
    11     5     6    1
    12     5    34    1
    13     5    35    1
    14     6     7    1
    15     6    36    1
    16     6    37    1
    17     7     8    1
    18     7    10    1
    19     7    38    1
    20     8     9    1
    21     8    39    1
    22     8    40    1
    23     9    41    1
    24     9    42    1
    25    10    11    2
    26    10    12   am
    27    12    13    1
    28    12    43    1
    29    13    14    1
    30    13    20    1
    31    13    44    1
    32    14    15   ar
    33    14    19   ar
    34    15    16   ar
    35    15    45    1
    36    16    17   ar
    37    16    46    1
    38    17    18   ar
    39    17    47    1
    40    18    19   ar
    41    18    48    1
    42    19    49    1
    43    20    21   ar
    44    20    25   ar
    45    21    22   ar
    46    21    50    1
    47    22    23   ar
    48    22    51    1
    49    23    24   ar
    50    23    52    1
    51    24    25   ar
    52    24    53    1
    53    26    27    1
    54    26    28    1
    55    26    29    1
    56    27    54    1
    57    27    55    1
    58    27    56    1
    59    28    57    1
    60    28    58    1
    61    28    59    1
    62    29    60    1
    63    29    61    1
    64    29    62    1
@<TRIPOS>SUBSTRUCTURE
     1 UNL         1 TEMP              0 ****  ****    0 ROOT


##########                                Name:    ZINC000150894060
##########                DOCK_Rotatable_Bonds:                  10
##########                         Heavy_Atoms:                  27
##########                    Molecular_Weight:              366.42
##########                DOCK_Rotatable_Bonds:                  10
##########                       Formal_Charge:        -6.70552e-07
##########                     HBond_Acceptors:                   7
##########                        HBond_Donors:                   2
##########                         Heavy_Atoms:                  27
##########                          Grid_Score:          -31.446190
##########                     Grid_vdw_energy:          -29.901146
##########                      Grid_es_energy:           -1.545044
##########           Internal_energy_repulsive:           19.842756

@<TRIPOS>MOLECULE
ZINC000150894060
 49 51 1 0 0
SMALL
USER_CHARGES


@<TRIPOS>ATOM
      1 C1        -12.1571   -2.3097   55.5821 C.3     1  ZINC000150894060   -0.1000
      2 C2        -12.6485   -0.9897   55.0461 C.2     1  ZINC000150894060   -0.0800
      3 C3        -13.9476   -0.5785   54.9585 C.2     1  ZINC000150894060   -0.1000
      4 C4        -15.1251   -1.3489   55.3718 C.2     1  ZINC000150894060    0.6100
      5 O5        -16.2384   -0.8745   55.2430 O.2     1  ZINC000150894060   -0.5100
      6 N6        -14.9743   -2.5820   55.8942 N.am    1  ZINC000150894060   -0.7200
      7 C7        -16.1507   -3.3522   56.3054 C.3     1  ZINC000150894060    0.1200
      8 C8        -15.7698   -4.2927   57.4505 C.3     1  ZINC000150894060   -0.1500
      9 C9        -15.6369   -3.4905   58.7466 C.3     1  ZINC000150894060    0.1200
     10 N10       -14.2605   -3.0074   58.8829 N.am    1  ZINC000150894060   -0.7300
     11 C11       -13.7990   -2.6190   60.0880 C.2     1  ZINC000150894060    0.5600
     12 O12       -14.5241   -2.6709   61.0622 O.2     1  ZINC000150894060   -0.5300
     13 C13       -12.4105   -2.1298   60.2253 C.ar    1  ZINC000150894060   -0.1300
     14 C14       -12.0847   -1.2183   61.2308 C.ar    1  ZINC000150894060   -0.0900
     15 C15       -10.7871   -0.7663   61.3538 C.ar    1  ZINC000150894060   -0.0900
     16 C16        -9.8097   -1.2142   60.4828 C.ar    1  ZINC000150894060   -0.0800
     17 C17        -8.3945   -0.7156   60.6227 C.3     1  ZINC000150894060    0.1700
     18 N18        -8.2014    0.4537   59.7616 N.pl3   1  ZINC000150894060   -0.3700
     19 C19        -8.3525    1.7436   60.1286 C.2     1  ZINC000150894060    0.0500
     20 C20        -8.0836    2.5137   59.0489 C.2     1  ZINC000150894060   -0.2700
     21 C21        -7.7569    1.6655   57.9858 C.2     1  ZINC000150894060    0.0400
     22 N22        -7.8212    0.4307   58.4135 N.2     1  ZINC000150894060   -0.2900
     23 C23       -10.1260   -2.1181   59.4842 C.ar    1  ZINC000150894060   -0.1100
     24 C24       -11.4186   -2.5821   59.3536 C.ar    1  ZINC000150894060   -0.0600
     25 O25       -13.9581    0.6607   54.4250 O.3     1  ZINC000150894060   -0.1700
     26 C26       -12.7008    1.0464   54.1720 C.2     1  ZINC000150894060    0.0000
     27 C27       -11.8591    0.0576   54.5460 C.2     1  ZINC000150894060   -0.2300
     28 H28       -11.9783   -2.2228   56.6538 H       1  ZINC000150894060    0.0800
     29 H29       -12.9085   -3.0781   55.4003 H       1  ZINC000150894060    0.0900
     30 H30       -11.2290   -2.5829   55.0799 H       1  ZINC000150894060    0.0700
     31 H31       -14.0869   -2.9597   55.9979 H       1  ZINC000150894060    0.4100
     32 H32       -16.9326   -2.6705   56.6399 H       1  ZINC000150894060    0.0800
     33 H33       -16.5155   -3.9371   55.4610 H       1  ZINC000150894060    0.0800
     34 H34       -16.5433   -5.0512   57.5704 H       1  ZINC000150894060    0.0800
     35 H35       -14.8195   -4.7757   57.2231 H       1  ZINC000150894060    0.0800
     36 H36       -16.3192   -2.6409   58.7196 H       1  ZINC000150894060    0.0800
     37 H37       -15.8839   -4.1280   59.5954 H       1  ZINC000150894060    0.0800
     38 H38       -13.6815   -2.9671   58.1057 H       1  ZINC000150894060    0.4000
     39 H39       -12.8467   -0.8673   61.9108 H       1  ZINC000150894060    0.1300
     40 H40       -10.5337   -0.0608   62.1313 H       1  ZINC000150894060    0.1300
     41 H41        -8.2081   -0.4377   61.6601 H       1  ZINC000150894060    0.1100
     42 H42        -7.7011   -1.5029   60.3273 H       1  ZINC000150894060    0.1000
     43 H43        -8.6375    2.0976   61.1083 H       1  ZINC000150894060    0.1700
     44 H44        -8.1161    3.5927   59.0141 H       1  ZINC000150894060    0.1500
     45 H45        -7.4923    1.9765   56.9860 H       1  ZINC000150894060    0.1800
     46 H46        -9.3585   -2.4641   58.8078 H       1  ZINC000150894060    0.1300
     47 H47       -11.6641   -3.2880   58.5739 H       1  ZINC000150894060    0.1400
     48 H48       -12.4076    1.9935   53.7435 H       1  ZINC000150894060    0.2100
     49 H49       -10.7819    0.0685   54.4685 H       1  ZINC000150894060    0.1600
@<TRIPOS>BOND
     1     1     2    1
     2     1    28    1
     3     1    29    1
     4     1    30    1
     5     2    27    1
     6     2     3    2
     7     3     4    1
     8     3    25    1
     9     4     5    2
    10     4     6   am
    11     6     7    1
    12     6    31    1
    13     7     8    1
    14     7    32    1
    15     7    33    1
    16     8     9    1
    17     8    34    1
    18     8    35    1
    19     9    10    1
    20     9    36    1
    21     9    37    1
    22    10    11   am
    23    10    38    1
    24    11    12    2
    25    11    13    1
    26    13    24   ar
    27    13    14   ar
    28    14    15   ar
    29    14    39    1
    30    15    16   ar
    31    15    40    1
    32    16    17    1
    33    16    23   ar
    34    17    18    1
    35    17    41    1
    36    17    42    1
    37    18    22    1
    38    18    19    1
    39    19    20    2
    40    19    43    1
    41    20    21    1
    42    20    44    1
    43    21    22    2
    44    21    45    1
    45    23    24   ar
    46    23    46    1
    47    24    47    1
    48    25    26    1
    49    26    27    2
    50    26    48    1
    51    27    49    1
@<TRIPOS>SUBSTRUCTURE
     1 ZINC000150894060        1 TEMP              0 ****  ****    0 ROOT


##########                                Name:    ZINC000970996691
##########                DOCK_Rotatable_Bonds:                   7
##########                         Heavy_Atoms:                  24
##########                    Molecular_Weight:             334.462
##########                DOCK_Rotatable_Bonds:                   7
##########                       Formal_Charge:          -0.0199999
##########                     HBond_Acceptors:                   6
##########                        HBond_Donors:                   0
##########                         Heavy_Atoms:                  24
##########                          Grid_Score:          -31.443413
##########                     Grid_vdw_energy:          -30.701288
##########                      Grid_es_energy:           -0.742124
##########           Internal_energy_repulsive:           10.459515

@<TRIPOS>MOLECULE
ZINC000970996691
 54 56 1 0 0
SMALL
USER_CHARGES


@<TRIPOS>ATOM
      1 C1         -0.3917    2.0035   59.2235 C.3     1  ZINC000970996691   -0.1500
      2 C2         -1.4790    2.5441   58.2929 C.3     1  ZINC000970996691   -0.1200
      3 C3         -1.1760    2.1202   56.8542 C.3     1  ZINC000970996691   -0.0300
      4 C4         -2.2403    2.6634   55.9359 C.2     1  ZINC000970996691    0.1800
      5 N5         -2.0585    3.1531   54.7331 N.2     1  ZINC000970996691   -0.4700
      6 C6         -3.2802    3.5107   54.2993 C.2     1  ZINC000970996691    0.1800
      7 C7         -3.6072    4.1282   52.9641 C.3     1  ZINC000970996691    0.1500
      8 N8         -3.4654    3.1163   51.9087 N.3     1  ZINC000970996691   -0.5200
      9 C9         -4.7649    2.8075   51.2973 C.3     1  ZINC000970996691    0.0200
     10 C10        -2.4950    3.5471   50.8933 C.3     1  ZINC000970996691    0.0700
     11 H11        -2.8033    4.4869   50.4352 H       1  ZINC000970996691    0.0600
     12 C12        -1.0714    3.6643   51.4989 C.3     1  ZINC000970996691   -0.1300
     13 C13        -0.1563    3.4349   50.2777 C.3     1  ZINC000970996691    0.1000
     14 N14        -0.9432    2.7038   49.2738 N.am    1  ZINC000970996691   -0.6200
     15 C15        -0.5073    2.3286   48.0549 C.2     1  ZINC000970996691    0.5300
     16 O16        -1.2466    1.7267   47.3052 O.2     1  ZINC000970996691   -0.5300
     17 C17         0.8988    2.6571   47.6235 C.3     1  ZINC000970996691   -0.1000
     18 C18         1.6940    1.3619   47.4476 C.3     1  ZINC000970996691   -0.1100
     19 C19         3.1216    1.6954   47.0097 C.3     1  ZINC000970996691   -0.1200
     20 C20         3.0834    2.4547   45.6820 C.3     1  ZINC000970996691   -0.1200
     21 C21         2.2882    3.7499   45.8578 C.3     1  ZINC000970996691   -0.1200
     22 C22         0.8607    3.4164   46.2957 C.3     1  ZINC000970996691   -0.1000
     23 C23        -2.2885    2.4482   49.8212 C.3     1  ZINC000970996691    0.1200
     24 N24        -4.1271    3.2256   55.2428 N.2     1  ZINC000970996691   -0.3800
     25 O25        -3.5507    2.7326   56.1894 O.3     1  ZINC000970996691    0.0800
     26 H26        -0.3690    0.9154   59.1624 H       1  ZINC000970996691    0.0600
     27 H27         0.5764    2.4044   58.9228 H       1  ZINC000970996691    0.0600
     28 H28        -0.6074    2.3054   60.2484 H       1  ZINC000970996691    0.0600
     29 H29        -2.4470    2.1432   58.5936 H       1  ZINC000970996691    0.0700
     30 H30        -1.5016    3.6322   58.3539 H       1  ZINC000970996691    0.0700
     31 H31        -0.2040    2.5137   56.5567 H       1  ZINC000970996691    0.1100
     32 H32        -1.1624    1.0322   56.7913 H       1  ZINC000970996691    0.1000
     33 H33        -4.6320    4.4992   52.9765 H       1  ZINC000970996691    0.0700
     34 H34        -2.9239    4.9548   52.7691 H       1  ZINC000970996691    0.1100
     35 H35        -5.1847    3.7131   50.8592 H       1  ZINC000970996691    0.0300
     36 H36        -4.6311    2.0558   50.5195 H       1  ZINC000970996691    0.0800
     37 H37        -5.4433    2.4246   52.0599 H       1  ZINC000970996691    0.0700
     38 H38        -0.9117    4.6571   51.9194 H       1  ZINC000970996691    0.0800
     39 H39        -0.9085    2.8942   52.2531 H       1  ZINC000970996691    0.0900
     40 H40         0.1655    4.3933   49.8704 H       1  ZINC000970996691    0.0700
     41 H41         0.7116    2.8440   50.5705 H       1  ZINC000970996691    0.0700
     42 H42         1.3763    3.2765   48.3827 H       1  ZINC000970996691    0.0900
     43 H43         1.7212    0.8210   48.3936 H       1  ZINC000970996691    0.0700
     44 H44         1.2164    0.7425   46.6885 H       1  ZINC000970996691    0.0700
     45 H45         3.5992    2.3148   47.7689 H       1  ZINC000970996691    0.0600
     46 H46         3.6881    0.7727   46.8845 H       1  ZINC000970996691    0.0700
     47 H47         4.1005    2.6923   45.3700 H       1  ZINC000970996691    0.0600
     48 H48         2.6058    1.8353   44.9229 H       1  ZINC000970996691    0.0600
     49 H49         2.7658    4.3693   46.6169 H       1  ZINC000970996691    0.0600
     50 H50         2.2610    4.2909   44.9119 H       1  ZINC000970996691    0.0700
     51 H51         0.3830    2.7970   45.5366 H       1  ZINC000970996691    0.0800
     52 H52         0.2941    4.3392   46.4210 H       1  ZINC000970996691    0.0600
     53 H53        -2.3303    1.4599   50.2790 H       1  ZINC000970996691    0.0800
     54 H54        -3.0402    2.5360   49.0368 H       1  ZINC000970996691    0.0800
@<TRIPOS>BOND
     1     1     2    1
     2     1    26    1
     3     1    27    1
     4     1    28    1
     5     2     3    1
     6     2    29    1
     7     2    30    1
     8     3     4    1
     9     3    31    1
    10     3    32    1
    11     4    25    1
    12     4     5    2
    13     5     6    1
    14     6     7    1
    15     6    24    2
    16     7     8    1
    17     7    33    1
    18     7    34    1
    19     8     9    1
    20     8    10    1
    21     9    35    1
    22     9    36    1
    23     9    37    1
    24    10    11    1
    25    10    23    1
    26    10    12    1
    27    12    13    1
    28    12    38    1
    29    12    39    1
    30    13    14    1
    31    13    40    1
    32    13    41    1
    33    14    15   am
    34    14    23    1
    35    15    16    2
    36    15    17    1
    37    17    22    1
    38    17    18    1
    39    17    42    1
    40    18    19    1
    41    18    43    1
    42    18    44    1
    43    19    20    1
    44    19    45    1
    45    19    46    1
    46    20    21    1
    47    20    47    1
    48    20    48    1
    49    21    22    1
    50    21    49    1
    51    21    50    1
    52    22    51    1
    53    22    52    1
    54    23    53    1
    55    23    54    1
    56    24    25    1
@<TRIPOS>SUBSTRUCTURE
     1 ZINC000970996691        1 TEMP              0 ****  ****    0 ROOT


##########                                Name:    ZINC000284209281
##########                DOCK_Rotatable_Bonds:                   8
##########                         Heavy_Atoms:                  26
##########                    Molecular_Weight:             353.424
##########                DOCK_Rotatable_Bonds:                   8
##########                       Formal_Charge:          0.00999954
##########                     HBond_Acceptors:                   7
##########                        HBond_Donors:                   1
##########                         Heavy_Atoms:                  26
##########                          Grid_Score:          -31.438234
##########                     Grid_vdw_energy:          -30.053799
##########                      Grid_es_energy:           -1.384436
##########           Internal_energy_repulsive:           12.139260

@<TRIPOS>MOLECULE
ZINC000284209281
 49 51 1 0 0
SMALL
USER_CHARGES


@<TRIPOS>ATOM
      1 O1         -6.4961    3.0583   50.8304 O.2     1  <0>        -0.5100
      2 C2         -6.0486    2.8185   51.9326 C.2     1  <0>         0.5100
      3 N3         -4.7408    2.5284   52.0804 N.am    1  <0>        -0.7000
      4 C4         -3.8607    2.4965   50.9098 C.3     1  <0>         0.1200
      5 C5         -2.4371    2.8659   51.3317 C.3     1  <0>        -0.1000
      6 C6         -1.4829    2.5529   50.2081 C.ar    1  <0>        -0.0400
      7 C7         -0.1472    2.2842   50.4654 C.ar    1  <0>        -0.1700
      8 C8          0.6983    2.0013   49.4095 C.ar    1  <0>         0.1000
      9 N9          0.2480    1.9856   48.1702 N.ar    1  <0>        -0.4900
     10 C10        -1.0157    2.2361   47.8884 C.ar    1  <0>         0.1000
     11 C11        -1.9210    2.5210   48.8931 C.ar    1  <0>        -0.1700
     12 C12        -6.9465    2.8510   53.1268 C.2     1  <0>         0.5100
     13 O13        -6.9977    3.8453   53.8207 O.2     1  <0>        -0.5200
     14 N14        -7.6993    1.7759   53.4334 N.am    1  <0>        -0.5800
     15 C15        -8.5939    1.7888   54.6007 C.3     1  <0>         0.0800
     16 C16        -9.9892    1.3438   54.1496 C.3     1  <0>         0.0400
     17 N17        -9.8880    0.0513   53.4588 N.3     1  <0>        -0.5300
     18 C18       -11.2199   -0.4927   53.1620 C.3     1  <0>         0.1000
     19 C19       -11.8304   -1.0434   54.4249 C.ar    1  <0>         0.1300
     20 C20       -13.0449   -0.5536   54.8663 C.ar    1  <0>        -0.1500
     21 C21       -13.5983   -1.0674   56.0293 C.ar    1  <0>        -0.0700
     22 C22       -12.9061   -2.0589   56.7073 C.ar    1  <0>        -0.1700
     23 C23       -11.6960   -2.4992   56.2052 C.ar    1  <0>         0.1000
     24 N24       -11.2022   -1.9910   55.0932 N.ar    1  <0>        -0.4800
     25 C25        -9.0802    0.1620   52.2369 C.3     1  <0>         0.0400
     26 C26        -7.6523    0.5607   52.6061 C.3     1  <0>         0.1100
     27 H27        -4.3824    2.3407   52.9620 H       1  <0>         0.4100
     28 H28        -3.8639    1.4949   50.4799 H       1  <0>         0.0800
     29 H29        -4.2168    3.2114   50.1679 H       1  <0>         0.0800
     30 H30        -2.3910    3.9304   51.5615 H       1  <0>         0.0900
     31 H31        -2.1594    2.2911   52.2152 H       1  <0>         0.0900
     32 H32         0.2278    2.2963   51.4782 H       1  <0>         0.1400
     33 H33         1.7401    1.7910   49.6015 H       1  <0>         0.1600
     34 H34        -1.3478    2.2145   46.8609 H       1  <0>         0.1600
     35 H35        -2.9547    2.7250   48.6560 H       1  <0>         0.1400
     36 H36        -8.2175    1.1014   55.3582 H       1  <0>         0.0800
     37 H37        -8.6461    2.7973   55.0110 H       1  <0>         0.1400
     38 H38       -10.6374    1.2414   55.0198 H       1  <0>         0.0900
     39 H39       -10.4063    2.0875   53.4704 H       1  <0>         0.0400
     40 H40       -11.8558    0.2992   52.7662 H       1  <0>         0.0900
     41 H41       -11.1305   -1.2899   52.4240 H       1  <0>         0.0600
     42 H42       -13.5563    0.2199   54.3126 H       1  <0>         0.1400
     43 H43       -14.5459   -0.7036   56.3983 H       1  <0>         0.1400
     44 H44       -13.3072   -2.4816   57.6166 H       1  <0>         0.1400
     45 H45       -11.1503   -3.2710   56.7277 H       1  <0>         0.1600
     46 H46        -9.0692   -0.7976   51.7200 H       1  <0>         0.1000
     47 H47        -9.5099    0.9221   51.5843 H       1  <0>         0.0400
     48 H48        -7.0803    0.7554   51.6989 H       1  <0>         0.1000
     49 H49        -7.1827   -0.2431   53.1730 H       1  <0>         0.0800
@<TRIPOS>BOND
     1     1     2    2
     2     2     3   am
     3     2    12    1
     4     3     4    1
     5     3    27    1
     6     4     5    1
     7     4    28    1
     8     4    29    1
     9     5     6    1
    10     5    30    1
    11     5    31    1
    12     6    11   ar
    13     6     7   ar
    14     7     8   ar
    15     7    32    1
    16     8     9   ar
    17     8    33    1
    18     9    10   ar
    19    10    11   ar
    20    10    34    1
    21    11    35    1
    22    12    13    2
    23    12    14   am
    24    14    26    1
    25    14    15    1
    26    15    16    1
    27    15    36    1
    28    15    37    1
    29    16    17    1
    30    16    38    1
    31    16    39    1
    32    17    18    1
    33    17    25    1
    34    18    19    1
    35    18    40    1
    36    18    41    1
    37    19    24   ar
    38    19    20   ar
    39    20    21   ar
    40    20    42    1
    41    21    22   ar
    42    21    43    1
    43    22    23   ar
    44    22    44    1
    45    23    24   ar
    46    23    45    1
    47    25    26    1
    48    25    46    1
    49    25    47    1
    50    26    48    1
    51    26    49    1
@<TRIPOS>SUBSTRUCTURE
     1 <0>         1 TEMP              0 ****  ****    0 ROOT


##########                                Name:    ZINC000000992968
##########                DOCK_Rotatable_Bonds:                   8
##########                         Heavy_Atoms:                  27
##########                    Molecular_Weight:             384.772
##########                DOCK_Rotatable_Bonds:                   8
##########                       Formal_Charge:           0.0199999
##########                     HBond_Acceptors:                   7
##########                        HBond_Donors:                   0
##########                         Heavy_Atoms:                  27
##########                          Grid_Score:          -31.373619
##########                     Grid_vdw_energy:          -30.393475
##########                      Grid_es_energy:           -0.980145
##########           Internal_energy_repulsive:            6.718779

@<TRIPOS>MOLECULE
ZINC000000992968
 40 42 1 0 0
SMALL
USER_CHARGES


@<TRIPOS>ATOM
      1 O1         -1.9571    4.7055   57.8823 O.2     1  ZINC000000992968   -0.4600
      2 C2         -1.9678    3.5005   58.0469 C.2     1  ZINC000000992968    0.5600
      3 O3         -3.0408    2.7767   57.6652 O.3     1  ZINC000000992968   -0.2900
      4 C4         -3.4372    2.8597   56.3701 C.ar    1  ZINC000000992968    0.1200
      5 C5         -2.4890    2.8446   55.3529 C.ar    1  ZINC000000992968   -0.1300
      6 C6         -2.8857    2.9289   54.0379 C.ar    1  ZINC000000992968   -0.0400
      7 C7         -4.2467    3.0297   53.7248 C.ar    1  ZINC000000992968   -0.1600
      8 C8         -4.6758    3.1195   52.3228 C.2     1  ZINC000000992968    0.4000
      9 O9         -5.7086    3.6891   52.0400 O.2     1  ZINC000000992968   -0.4200
     10 C10        -3.8326    2.5039   51.2359 C.3     1  ZINC000000992968    0.0200
     11 O11        -3.1817    3.5551   50.4745 O.3     1  ZINC000000992968   -0.3300
     12 C12        -1.8352    3.5877   50.5041 C.2     1  ZINC000000992968    0.5100
     13 O13        -1.2626    4.3765   51.2292 O.2     1  ZINC000000992968   -0.5000
     14 C14        -1.0555    2.6646   49.6554 C.ar    1  ZINC000000992968   -0.1300
     15 C15         0.1155    2.0817   50.1451 C.ar    1  ZINC000000992968   -0.0500
     16 C16         0.8389    1.2203   49.3479 C.ar    1  ZINC000000992968   -0.1200
     17 C17         0.4067    0.9328   48.0635 C.ar    1  ZINC000000992968    0.0000
     18 Cl18        1.3233   -0.1524   47.0657 Cl      1  ZINC000000992968   -0.0500
     19 C19        -0.7541    1.5073   47.5723 C.ar    1  ZINC000000992968   -0.1200
     20 C20        -1.4891    2.3663   48.3617 C.ar    1  ZINC000000992968   -0.0400
     21 C21        -5.1974    3.0441   54.7527 C.ar    1  ZINC000000992968   -0.0600
     22 C22        -4.7905    2.9539   56.0643 C.ar    1  ZINC000000992968   -0.1200
     23 C23        -0.8135    2.8342   58.6539 C.2     1  ZINC000000992968   -0.0700
     24 C24         0.3575    3.4341   59.0233 C.2     1  ZINC000000992968   -0.0900
     25 C25         1.1757    2.4269   59.5569 C.2     1  ZINC000000992968   -0.2300
     26 C26         0.4782    1.2709   59.4911 C.2     1  ZINC000000992968    0.0200
     27 O27        -0.7218    1.5214   58.9520 O.3     1  ZINC000000992968   -0.1500
     28 H28        -1.4395    2.7669   55.5955 H       1  ZINC000000992968    0.1400
     29 H29        -2.1485    2.9177   53.2487 H       1  ZINC000000992968    0.1500
     30 H30        -3.0770    1.8586   51.6837 H       1  ZINC000000992968    0.1100
     31 H31        -4.4671    1.9151   50.5735 H       1  ZINC000000992968    0.1100
     32 H32         0.4538    2.3057   51.1460 H       1  ZINC000000992968    0.1500
     33 H33         1.7445    0.7690   49.7253 H       1  ZINC000000992968    0.1500
     34 H34        -1.0861    1.2790   46.5703 H       1  ZINC000000992968    0.1500
     35 H35        -2.3941    2.8133   47.9777 H       1  ZINC000000992968    0.1500
     36 H36        -6.2484    3.1219   54.5165 H       1  ZINC000000992968    0.1400
     37 H37        -5.5230    2.9646   56.8578 H       1  ZINC000000992968    0.1400
     38 H38         0.6053    4.4806   58.9238 H       1  ZINC000000992968    0.1700
     39 H39         2.1750    2.5518   59.9468 H       1  ZINC000000992968    0.1700
     40 H40         0.8294    0.3049   59.8226 H       1  ZINC000000992968    0.2200
@<TRIPOS>BOND
     1     1     2    2
     2     2     3    1
     3     2    23    1
     4     3     4    1
     5     4    22   ar
     6     4     5   ar
     7     5     6   ar
     8     5    28    1
     9     6     7   ar
    10     6    29    1
    11     7     8    1
    12     7    21   ar
    13     8     9    2
    14     8    10    1
    15    10    11    1
    16    10    30    1
    17    10    31    1
    18    11    12    1
    19    12    13    2
    20    12    14    1
    21    14    20   ar
    22    14    15   ar
    23    15    16   ar
    24    15    32    1
    25    16    17   ar
    26    16    33    1
    27    17    18    1
    28    17    19   ar
    29    19    20   ar
    30    19    34    1
    31    20    35    1
    32    21    22   ar
    33    21    36    1
    34    22    37    1
    35    23    27    1
    36    23    24    2
    37    24    25    1
    38    24    38    1
    39    25    26    2
    40    25    39    1
    41    26    27    1
    42    26    40    1
@<TRIPOS>SUBSTRUCTURE
     1 ZINC000000992968        1 TEMP              0 ****  ****    0 ROOT


##########                                Name:    ZINC000504243286
##########                DOCK_Rotatable_Bonds:                   7
##########                         Heavy_Atoms:                  29
##########                    Molecular_Weight:             408.337
##########                DOCK_Rotatable_Bonds:                   7
##########                       Formal_Charge:           0.0299994
##########                     HBond_Acceptors:                  11
##########                        HBond_Donors:                   3
##########                         Heavy_Atoms:                  29
##########                          Grid_Score:          -31.370518
##########                     Grid_vdw_energy:          -30.270790
##########                      Grid_es_energy:           -1.099728
##########           Internal_energy_repulsive:           10.306774

@<TRIPOS>MOLECULE
ZINC000504243286
 44 46 1 0 0
SMALL
USER_CHARGES


@<TRIPOS>ATOM
      1 O1         -1.4407    4.1357   50.4030 O.2     1  ZINC000504243286   -0.5200
      2 C2         -2.1355    3.2062   50.7557 C.2     1  ZINC000504243286    0.5200
      3 C3         -3.1897    3.4121   51.8128 C.3     1  ZINC000504243286   -0.1600
      4 C4         -4.4037    2.5352   51.5000 C.3     1  ZINC000504243286    0.1300
      5 N5         -5.5851    3.0778   52.1755 N.pl3   1  ZINC000504243286   -0.7200
      6 C6         -6.7228    2.2841   52.3380 C.ar    1  ZINC000504243286    0.3100
      7 C7         -6.8410    1.0867   51.6443 C.ar    1  ZINC000504243286   -0.1900
      8 C8         -7.9672    0.3039   51.8076 C.ar    1  ZINC000504243286    0.0200
      9 C9         -8.9764    0.7112   52.6607 C.ar    1  ZINC000504243286   -0.2400
     10 C10       -10.2034   -0.1457   52.8369 C.3     1  ZINC000504243286    0.5200
     11 F11        -9.9934   -1.0518   53.8819 F       1  ZINC000504243286   -0.1700
     12 F12       -11.3009    0.6676   53.1384 F       1  ZINC000504243286   -0.1700
     13 F13       -10.4549   -0.8487   51.6537 F       1  ZINC000504243286   -0.1700
     14 C14        -8.8618    1.9030   53.3531 C.ar    1  ZINC000504243286    0.0400
     15 C15        -7.7362    2.6877   53.1984 C.ar    1  ZINC000504243286   -0.1200
     16 N16        -7.6146    3.9629   53.9397 N.pl3   1  ZINC000504243286    0.0400
     17 O17        -6.5333    4.3112   54.3790 O.2     1  ZINC000504243286   -0.1700
     18 O18        -8.5958    4.6641   54.1105 O.2     1  ZINC000504243286   -0.1400
     19 N19        -1.9687    1.9906   50.1981 N.am    1  ZINC000504243286   -0.6700
     20 C20        -0.9889    1.7992   49.2155 C.ar    1  ZINC000504243286    0.1200
     21 C21        -1.2559    2.1228   47.8920 C.ar    1  ZINC000504243286   -0.1000
     22 C22        -0.2932    1.9360   46.9224 C.ar    1  ZINC000504243286   -0.1200
     23 C23         0.9554    1.4201   47.2638 C.ar    1  ZINC000504243286    0.1300
     24 N24         2.0746    1.1437   46.4747 N.am    1  ZINC000504243286   -0.6600
     25 C25         3.0941    0.6466   47.1951 C.2     1  ZINC000504243286    0.5300
     26 O26         4.1828    0.3194   46.7720 O.2     1  ZINC000504243286   -0.5000
     27 C27         2.6292    0.5721   48.6338 C.3     1  ZINC000504243286   -0.1200
     28 C28         1.2133    1.0991   48.5909 C.ar    1  ZINC000504243286   -0.1200
     29 C29         0.2573    1.2896   49.5618 C.ar    1  ZINC000504243286   -0.0600
     30 H30        -2.7852    3.1386   52.7873 H       1  ZINC000504243286    0.1100
     31 H31        -3.4916    4.4594   51.8257 H       1  ZINC000504243286    0.1100
     32 H32        -4.5748    2.5219   50.4237 H       1  ZINC000504243286    0.0800
     33 H33        -4.2187    1.5200   51.8512 H       1  ZINC000504243286    0.0900
     34 H34        -5.5771    3.9883   52.5099 H       1  ZINC000504243286    0.4100
     35 H35        -6.0533    0.7682   50.9776 H       1  ZINC000504243286    0.1600
     36 H36        -8.0600   -0.6272   51.2683 H       1  ZINC000504243286    0.1600
     37 H37        -9.6519    2.2182   54.0186 H       1  ZINC000504243286    0.1600
     38 H38        -2.5272    1.2482   50.4773 H       1  ZINC000504243286    0.4200
     39 H39        -2.2217    2.5223   47.6205 H       1  ZINC000504243286    0.1400
     40 H40        -0.5078    2.1900   45.8949 H       1  ZINC000504243286    0.1300
     41 H41         2.1116    1.2934   45.5171 H       1  ZINC000504243286    0.4100
     42 H42         2.6422   -0.4594   48.9862 H       1  ZINC000504243286    0.1300
     43 H43         3.2519    1.2016   49.2694 H       1  ZINC000504243286    0.1300
     44 H44         0.4733    1.0404   50.5903 H       1  ZINC000504243286    0.1500
@<TRIPOS>BOND
     1     1     2    2
     2     2     3    1
     3     2    19   am
     4     3     4    1
     5     3    30    1
     6     3    31    1
     7     4     5    1
     8     4    32    1
     9     4    33    1
    10     5     6    1
    11     5    34    1
    12     6    15   ar
    13     6     7   ar
    14     7     8   ar
    15     7    35    1
    16     8     9   ar
    17     8    36    1
    18     9    10    1
    19     9    14   ar
    20    10    11    1
    21    10    12    1
    22    10    13    1
    23    14    15   ar
    24    14    37    1
    25    15    16    1
    26    16    17    2
    27    16    18    2
    28    19    20    1
    29    19    38    1
    30    20    29   ar
    31    20    21   ar
    32    21    22   ar
    33    21    39    1
    34    22    23   ar
    35    22    40    1
    36    23    28   ar
    37    23    24    1
    38    24    25   am
    39    24    41    1
    40    25    26    2
    41    25    27    1
    42    27    28    1
    43    27    42    1
    44    27    43    1
    45    28    29   ar
    46    29    44    1
@<TRIPOS>SUBSTRUCTURE
     1 ZINC000504243286        1 TEMP              0 ****  ****    0 ROOT


##########                                Name:    ZINC000505965769
##########                DOCK_Rotatable_Bonds:                   9
##########                         Heavy_Atoms:                  29
##########                    Molecular_Weight:              419.88
##########                DOCK_Rotatable_Bonds:                   9
##########                       Formal_Charge:               -0.02
##########                     HBond_Acceptors:                   7
##########                        HBond_Donors:                   1
##########                         Heavy_Atoms:                  29
##########                          Grid_Score:          -31.349747
##########                     Grid_vdw_energy:          -30.076380
##########                      Grid_es_energy:           -1.273367
##########           Internal_energy_repulsive:           12.870996

@<TRIPOS>MOLECULE
ZINC000505965769
 52 54 1 0 0
SMALL
USER_CHARGES


@<TRIPOS>ATOM
      1 C1         -8.0894    2.4761   57.8676 C.3     1  ZINC000505965769    0.0200
      2 O2         -7.0203    1.7767   57.2271 O.3     1  ZINC000505965769   -0.3100
      3 C3         -6.6197    2.2395   56.0164 C.ar    1  ZINC000505965769    0.1800
      4 C4         -5.4795    3.0303   55.9196 C.ar    1  ZINC000505965769   -0.2200
      5 C5         -5.0685    3.5002   54.7050 C.ar    1  ZINC000505965769   -0.0200
      6 C6         -5.7955    3.1868   53.5498 C.ar    1  ZINC000505965769   -0.2100
      7 C7         -5.3554    3.6902   52.2433 C.2     1  ZINC000505965769    0.3900
      8 O8         -5.7027    4.7906   51.8690 O.2     1  ZINC000505965769   -0.4400
      9 C9         -4.4722    2.8401   51.3667 C.3     1  ZINC000505965769   -0.1500
     10 C10        -3.0290    3.3393   51.4600 C.3     1  ZINC000505965769   -0.1300
     11 C11        -2.2050    2.6999   50.3723 C.2     1  ZINC000505965769    0.5200
     12 O12        -2.7302    2.3629   49.3324 O.2     1  ZINC000505965769   -0.5300
     13 N13        -0.8843    2.5027   50.5551 N.am    1  ZINC000505965769   -0.7200
     14 C14        -0.0836    1.8795   49.4983 C.3     1  ZINC000505965769    0.1900
     15 H15        -0.6993    1.1687   48.9472 H       1  ZINC000505965769    0.1100
     16 C16         0.4206    2.9429   48.5570 C.ar    1  ZINC000505965769   -0.1000
     17 C17         0.8923    4.1418   49.0583 C.ar    1  ZINC000505965769   -0.0900
     18 C18         1.3549    5.1176   48.1960 C.ar    1  ZINC000505965769   -0.1500
     19 C19         1.3465    4.8940   46.8296 C.ar    1  ZINC000505965769    0.1000
     20 F20         1.7989    5.8471   45.9857 F       1  ZINC000505965769   -0.1400
     21 C21         0.8743    3.6925   46.3287 C.ar    1  ZINC000505965769   -0.1500
     22 C22         0.4166    2.7163   47.1932 C.ar    1  ZINC000505965769   -0.0600
     23 C23         1.1050    1.1469   50.1239 C.3     1  ZINC000505965769    0.0800
     24 H24         0.7633    0.4786   50.9144 H       1  ZINC000505965769    0.0700
     25 C25         1.8756    0.3496   49.0415 C.3     1  ZINC000505965769   -0.1500
     26 C26         3.2846    0.2599   49.6886 C.3     1  ZINC000505965769   -0.1600
     27 C27         3.3879    1.6066   50.4365 C.3     1  ZINC000505965769    0.0500
     28 O28         2.0545    2.0907   50.6446 O.3     1  ZINC000505965769   -0.3700
     29 C29        -6.9450    2.3896   53.6461 C.ar    1  ZINC000505965769    0.0500
     30 Cl30       -7.8539    1.9947   52.2209 Cl      1  ZINC000505965769   -0.0200
     31 C31        -7.3473    1.9167   54.8764 C.ar    1  ZINC000505965769   -0.1600
     32 H32        -8.9757    2.4439   57.2339 H       1  ZINC000505965769    0.0600
     33 H33        -8.3101    2.0043   58.8251 H       1  ZINC000505965769    0.1100
     34 H34        -7.7979    3.5134   58.0322 H       1  ZINC000505965769    0.0600
     35 H35        -4.9171    3.2739   56.8088 H       1  ZINC000505965769    0.1400
     36 H36        -4.1827    4.1142   54.6354 H       1  ZINC000505965769    0.1500
     37 H37        -4.5202    1.8032   51.6993 H       1  ZINC000505965769    0.1100
     38 H38        -4.8136    2.9065   50.3337 H       1  ZINC000505965769    0.1100
     39 H39        -3.0108    4.4226   51.3404 H       1  ZINC000505965769    0.1000
     40 H40        -2.6149    3.0742   52.4329 H       1  ZINC000505965769    0.1000
     41 H41        -0.4640    2.7734   51.3863 H       1  ZINC000505965769    0.4000
     42 H42         0.8987    4.3160   50.1241 H       1  ZINC000505965769    0.1300
     43 H43         1.7227    6.0544   48.5877 H       1  ZINC000505965769    0.1400
     44 H44         0.8669    3.5171   45.2631 H       1  ZINC000505965769    0.1400
     45 H45         0.0486    1.7789   46.8028 H       1  ZINC000505965769    0.1400
     46 H46         1.4437   -0.6413   48.9015 H       1  ZINC000505965769    0.0700
     47 H47         1.9099    0.8978   48.0999 H       1  ZINC000505965769    0.1000
     48 H48         3.3387   -0.5762   50.3858 H       1  ZINC000505965769    0.0700
     49 H49         4.0579    0.1802   48.9247 H       1  ZINC000505965769    0.0800
     50 H50         3.8804    1.4588   51.3977 H       1  ZINC000505965769    0.0700
     51 H51         3.9522    2.3204   49.8365 H       1  ZINC000505965769    0.0700
     52 H52        -8.2317    1.3021   54.9561 H       1  ZINC000505965769    0.1500
@<TRIPOS>BOND
     1     1     2    1
     2     1    32    1
     3     1    33    1
     4     1    34    1
     5     2     3    1
     6     3    31   ar
     7     3     4   ar
     8     4     5   ar
     9     4    35    1
    10     5     6   ar
    11     5    36    1
    12     6     7    1
    13     6    29   ar
    14     7     8    2
    15     7     9    1
    16     9    10    1
    17     9    37    1
    18     9    38    1
    19    10    11    1
    20    10    39    1
    21    10    40    1
    22    11    12    2
    23    11    13   am
    24    13    14    1
    25    13    41    1
    26    14    15    1
    27    14    16    1
    28    14    23    1
    29    16    22   ar
    30    16    17   ar
    31    17    18   ar
    32    17    42    1
    33    18    19   ar
    34    18    43    1
    35    19    20    1
    36    19    21   ar
    37    21    22   ar
    38    21    44    1
    39    22    45    1
    40    23    24    1
    41    23    28    1
    42    23    25    1
    43    25    26    1
    44    25    46    1
    45    25    47    1
    46    26    27    1
    47    26    48    1
    48    26    49    1
    49    27    28    1
    50    27    50    1
    51    27    51    1
    52    29    30    1
    53    29    31   ar
    54    31    52    1
@<TRIPOS>SUBSTRUCTURE
     1 ZINC000505965769        1 TEMP              0 ****  ****    0 ROOT


##########                                Name:    ZINC000840464592
##########                DOCK_Rotatable_Bonds:                  10
##########                         Heavy_Atoms:                  26
##########                    Molecular_Weight:             360.497
##########                DOCK_Rotatable_Bonds:                  10
##########                       Formal_Charge:          -0.0399996
##########                     HBond_Acceptors:                   5
##########                        HBond_Donors:                   1
##########                         Heavy_Atoms:                  26
##########                          Grid_Score:          -31.347420
##########                     Grid_vdw_energy:          -30.730080
##########                      Grid_es_energy:           -0.617340
##########           Internal_energy_repulsive:           88.157784

@<TRIPOS>MOLECULE
ZINC000840464592
 58 59 1 0 0
SMALL
USER_CHARGES


@<TRIPOS>ATOM
      1 C1        -15.4847   -5.3136   54.4625 C.3     1  ZINC000840464592   -0.1500
      2 C2        -15.8294   -4.2253   55.4812 C.3     1  ZINC000840464592   -0.1300
      3 C3        -15.4389   -4.6969   56.8832 C.3     1  ZINC000840464592   -0.1200
      4 C4        -15.7505   -3.5945   57.8974 C.3     1  ZINC000840464592   -0.1200
      5 C5        -15.0313   -2.3074   57.4887 C.3     1  ZINC000840464592   -0.1200
      6 C6        -13.5489   -2.6042   57.2537 C.3     1  ZINC000840464592    0.0600
      7 O7        -12.8407   -1.3767   57.0697 O.3     1  ZINC000840464592   -0.3600
      8 C8        -11.5036   -1.5428   56.5938 C.3     1  ZINC000840464592    0.0800
      9 H9        -11.0771   -2.4518   57.0182 H       1  ZINC000840464592    0.0800
     10 C10       -11.5149   -1.6492   55.0675 C.3     1  ZINC000840464592   -0.1800
     11 C11       -10.6717   -0.3566   57.0085 C.2     1  ZINC000840464592    0.5200
     12 O12       -10.4728    0.5480   56.2255 O.2     1  ZINC000840464592   -0.5000
     13 N13       -10.1487   -0.3010   58.2493 N.am    1  ZINC000840464592   -0.6000
     14 C14        -9.3430    0.8508   58.6468 C.3     1  ZINC000840464592    0.0900
     15 C15        -7.9096    0.4452   58.9708 C.3     1  ZINC000840464592   -0.1600
     16 C16        -7.8891   -0.5133   60.1636 C.3     1  ZINC000840464592    0.0800
     17 N17        -8.0239   -1.8898   59.6745 N.am    1  ZINC000840464592   -0.7200
     18 C18        -9.1945   -2.3228   59.1802 C.2     1  ZINC000840464592    0.5100
     19 O19        -9.2918   -3.4442   58.7285 O.2     1  ZINC000840464592   -0.5200
     20 C20       -10.3968   -1.3944   59.1949 C.3     1  ZINC000840464592    0.1400
     21 H21       -11.2877   -1.9451   58.8936 H       1  ZINC000840464592    0.1300
     22 C22       -10.5933   -0.8316   60.6040 C.3     1  ZINC000840464592   -0.1000
     23 C23       -12.0370   -0.9834   61.0087 C.ar    1  ZINC000840464592   -0.0900
     24 C24       -12.8031    0.1372   61.2699 C.ar    1  ZINC000840464592   -0.1100
     25 C25       -14.1273   -0.0019   61.6411 C.ar    1  ZINC000840464592   -0.1200
     26 C26       -14.6856   -1.2617   61.7507 C.ar    1  ZINC000840464592   -0.1200
     27 C27       -13.9198   -2.3823   61.4886 C.ar    1  ZINC000840464592   -0.1200
     28 C28       -12.5967   -2.2429   61.1133 C.ar    1  ZINC000840464592   -0.1100
     29 H29       -16.0319   -6.2246   54.7050 H       1  ZINC000840464592    0.0500
     30 H30       -15.7630   -4.9776   53.4637 H       1  ZINC000840464592    0.0500
     31 H31       -14.4138   -5.5139   54.4933 H       1  ZINC000840464592    0.0500
     32 H32       -15.2823   -3.3143   55.2387 H       1  ZINC000840464592    0.0600
     33 H33       -16.9005   -4.0249   55.4504 H       1  ZINC000840464592    0.0600
     34 H34       -16.0050   -5.5935   57.1359 H       1  ZINC000840464592    0.0600
     35 H35       -14.3726   -4.9217   56.9072 H       1  ZINC000840464592    0.0600
     36 H36       -16.8257   -3.4175   57.9227 H       1  ZINC000840464592    0.0600
     37 H37       -15.4097   -3.9030   58.8857 H       1  ZINC000840464592    0.0600
     38 H38       -15.4740   -1.9195   56.5713 H       1  ZINC000840464592    0.0700
     39 H39       -15.1323   -1.5671   58.2823 H       1  ZINC000840464592    0.0700
     40 H40       -13.1428   -3.1321   58.1165 H       1  ZINC000840464592    0.0500
     41 H41       -13.4390   -3.2240   56.3638 H       1  ZINC000840464592    0.0500
     42 H42       -10.4904   -1.7042   54.6995 H       1  ZINC000840464592    0.0800
     43 H43       -12.0568   -2.5470   54.7699 H       1  ZINC000840464592    0.0700
     44 H44       -12.0057   -0.7721   54.6459 H       1  ZINC000840464592    0.0800
     45 H45        -9.3327    1.5760   57.8331 H       1  ZINC000840464592    0.1000
     46 H46        -9.7905    1.3116   59.5274 H       1  ZINC000840464592    0.0800
     47 H47        -7.4688   -0.0471   58.1040 H       1  ZINC000840464592    0.0800
     48 H48        -7.3283    1.3351   59.2126 H       1  ZINC000840464592    0.1000
     49 H49        -6.9461   -0.4078   60.6999 H       1  ZINC000840464592    0.0900
     50 H50        -8.7181   -0.2812   60.8321 H       1  ZINC000840464592    0.1000
     51 H51        -7.2629   -2.4904   59.7082 H       1  ZINC000840464592    0.4000
     52 H52        -9.9604   -1.3765   61.3045 H       1  ZINC000840464592    0.0900
     53 H53       -10.3219    0.2240   60.6148 H       1  ZINC000840464592    0.1000
     54 H54       -12.3668    1.1216   61.1843 H       1  ZINC000840464592    0.1200
     55 H55       -14.7256    0.8736   61.8459 H       1  ZINC000840464592    0.1200
     56 H56       -15.7201   -1.3705   62.0414 H       1  ZINC000840464592    0.1200
     57 H57       -14.3560   -3.3666   61.5746 H       1  ZINC000840464592    0.1200
     58 H58       -11.9985   -3.1185   60.9086 H       1  ZINC000840464592    0.1200
@<TRIPOS>BOND
     1     1     2    1
     2     1    29    1
     3     1    30    1
     4     1    31    1
     5     2     3    1
     6     2    32    1
     7     2    33    1
     8     3     4    1
     9     3    34    1
    10     3    35    1
    11     4     5    1
    12     4    36    1
    13     4    37    1
    14     5     6    1
    15     5    38    1
    16     5    39    1
    17     6     7    1
    18     6    40    1
    19     6    41    1
    20     7     8    1
    21     8     9    1
    22     8    10    1
    23     8    11    1
    24    10    42    1
    25    10    43    1
    26    10    44    1
    27    11    12    2
    28    11    13   am
    29    13    20    1
    30    13    14    1
    31    14    15    1
    32    14    45    1
    33    14    46    1
    34    15    16    1
    35    15    47    1
    36    15    48    1
    37    16    17    1
    38    16    49    1
    39    16    50    1
    40    17    18   am
    41    17    51    1
    42    18    19    2
    43    18    20    1
    44    20    21    1
    45    20    22    1
    46    22    23    1
    47    22    52    1
    48    22    53    1
    49    23    28   ar
    50    23    24   ar
    51    24    25   ar
    52    24    54    1
    53    25    26   ar
    54    25    55    1
    55    26    27   ar
    56    26    56    1
    57    27    28   ar
    58    27    57    1
    59    28    58    1
@<TRIPOS>SUBSTRUCTURE
     1 ZINC000840464592        1 TEMP              0 ****  ****    0 ROOT


##########                                Name:    ZINC000848949366
##########                DOCK_Rotatable_Bonds:                   8
##########                         Heavy_Atoms:                  25
##########                    Molecular_Weight:             368.773
##########                DOCK_Rotatable_Bonds:                   8
##########                       Formal_Charge:          0.00999947
##########                     HBond_Acceptors:                   9
##########                        HBond_Donors:                   3
##########                         Heavy_Atoms:                  25
##########                          Grid_Score:          -31.318003
##########                     Grid_vdw_energy:          -31.499889
##########                      Grid_es_energy:            0.181886
##########           Internal_energy_repulsive:           12.514331

@<TRIPOS>MOLECULE
ZINC000848949366
 42 43 1 0 0
SMALL
USER_CHARGES


@<TRIPOS>ATOM
      1 C1          1.5717    3.8853   45.0987 C.3     1  ZINC000848949366   -0.1500
      2 C2          1.2142    4.3328   46.5175 C.3     1  ZINC000848949366    0.0600
      3 O3          1.5700    3.3054   47.4448 O.3     1  ZINC000848949366   -0.3500
      4 C4          0.7851    2.2080   47.4741 C.2     1  ZINC000848949366    0.5400
      5 O5         -0.3107    2.2295   46.9456 O.2     1  ZINC000848949366   -0.4800
      6 C6          1.2363    1.0327   48.1192 C.2     1  ZINC000848949366   -0.2300
      7 C7          1.2655    0.9431   49.4663 C.2     1  ZINC000848949366    0.2000
      8 C8          0.8095    2.1147   50.2973 C.3     1  ZINC000848949366    0.1000
      9 O9         -0.6332    2.0648   50.4538 O.3     1  ZINC000848949366   -0.3500
     10 C10        -1.1727    2.8513   51.4058 C.2     1  ZINC000848949366    0.5100
     11 O11        -0.4620    3.5890   52.0594 O.2     1  ZINC000848949366   -0.4800
     12 C12        -2.6247    2.8168   51.6541 C.ar    1  ZINC000848949366   -0.1600
     13 C13        -3.1169    2.9080   52.9590 C.ar    1  ZINC000848949366   -0.0300
     14 C14        -4.4753    2.8751   53.1848 C.ar    1  ZINC000848949366   -0.1300
     15 C15        -5.3581    2.7515   52.1225 C.ar    1  ZINC000848949366    0.0200
     16 Cl16       -7.0677    2.7108   52.4215 Cl      1  ZINC000848949366   -0.0500
     17 C17        -4.8846    2.6608   50.8269 C.ar    1  ZINC000848949366   -0.1500
     18 C18        -3.5209    2.6980   50.5815 C.ar    1  ZINC000848949366    0.1900
     19 O19        -3.0548    2.6091   49.3109 O.3     1  ZINC000848949366   -0.4700
     20 N20         1.7009   -0.1922   50.0878 N.am    1  ZINC000848949366   -0.6400
     21 C21         2.1241   -1.2812   49.4336 C.2     1  ZINC000848949366    0.7100
     22 O22         2.4935   -2.2457   50.0748 O.2     1  ZINC000848949366   -0.5600
     23 N23         2.1535   -1.3430   48.0876 N.am    1  ZINC000848949366   -0.7100
     24 C24         1.6976   -0.1705   47.3222 C.3     1  ZINC000848949366    0.2000
     25 H25         0.8790   -0.4885   46.6764 H       1  ZINC000848949366    0.0900
     26 C26         2.8506    0.2846   46.4254 C.3     1  ZINC000848949366   -0.1700
     27 H27         1.3004    4.6689   44.3913 H       1  ZINC000848949366    0.0800
     28 H28         2.6432    3.6951   45.0369 H       1  ZINC000848949366    0.0700
     29 H29         1.0262    2.9730   44.8572 H       1  ZINC000848949366    0.0700
     30 H30         1.7597    5.2450   46.7590 H       1  ZINC000848949366    0.0700
     31 H31         0.1427    4.5230   46.5793 H       1  ZINC000848949366    0.0700
     32 H32         1.2830    2.0707   51.2781 H       1  ZINC000848949366    0.1100
     33 H33         1.0892    3.0435   49.8001 H       1  ZINC000848949366    0.1000
     34 H34        -2.4329    3.0037   53.7893 H       1  ZINC000848949366    0.1500
     35 H35        -4.8544    2.9456   54.1936 H       1  ZINC000848949366    0.1500
     36 H36        -5.5782    2.5646   50.0046 H       1  ZINC000848949366    0.1500
     37 H37        -2.1018    2.7527   49.2306 H       1  ZINC000848949366    0.4000
     38 H38         1.7040   -0.2108   51.0576 H       1  ZINC000848949366    0.4300
     39 H39         2.4643   -2.1421   47.6340 H       1  ZINC000848949366    0.4400
     40 H40         3.1253   -0.5240   45.7481 H       1  ZINC000848949366    0.0700
     41 H41         2.5389    1.1538   45.8460 H       1  ZINC000848949366    0.0700
     42 H42         3.7090    0.5486   47.0431 H       1  ZINC000848949366    0.0700
@<TRIPOS>BOND
     1     1     2    1
     2     1    27    1
     3     1    28    1
     4     1    29    1
     5     2     3    1
     6     2    30    1
     7     2    31    1
     8     3     4    1
     9     4     5    2
    10     4     6    1
    11     6    24    1
    12     6     7    2
    13     7     8    1
    14     7    20    1
    15     8     9    1
    16     8    32    1
    17     8    33    1
    18     9    10    1
    19    10    11    2
    20    10    12    1
    21    12    18   ar
    22    12    13   ar
    23    13    14   ar
    24    13    34    1
    25    14    15   ar
    26    14    35    1
    27    15    16    1
    28    15    17   ar
    29    17    18   ar
    30    17    36    1
    31    18    19    1
    32    19    37    1
    33    20    21   am
    34    20    38    1
    35    21    22    2
    36    21    23   am
    37    23    24    1
    38    23    39    1
    39    24    25    1
    40    24    26    1
    41    26    40    1
    42    26    41    1
    43    26    42    1
@<TRIPOS>SUBSTRUCTURE
     1 ZINC000848949366        1 TEMP              0 ****  ****    0 ROOT


##########                                Name:    ZINC000451019064
##########                DOCK_Rotatable_Bonds:                   8
##########                         Heavy_Atoms:                  23
##########                    Molecular_Weight:             346.534
##########                DOCK_Rotatable_Bonds:                   8
##########                       Formal_Charge:          -0.0200008
##########                     HBond_Acceptors:                   6
##########                        HBond_Donors:                   1
##########                         Heavy_Atoms:                  23
##########                          Grid_Score:          -31.315899
##########                     Grid_vdw_energy:          -31.279081
##########                      Grid_es_energy:           -0.036817
##########           Internal_energy_repulsive:            7.016633

@<TRIPOS>MOLECULE
ZINC000451019064
 57 58 1 0 0
SMALL
USER_CHARGES


@<TRIPOS>ATOM
      1 C1        -12.6300    0.9986   50.7093 C.3     1  ZINC000451019064   -0.1500
      2 C2        -11.7878    0.9125   51.9838 C.3     1  ZINC000451019064    0.0900
      3 H3        -11.9331    1.8149   52.5777 H       1  ZINC000451019064    0.0700
      4 C4        -10.3089    0.7781   51.6112 C.3     1  ZINC000451019064    0.0200
      5 N5         -9.5127    0.6184   52.8366 N.3     1  ZINC000451019064   -0.5400
      6 C6         -8.0788    0.5427   52.5267 C.3     1  ZINC000451019064    0.0600
      7 C7         -7.4646    1.9416   52.6096 C.3     1  ZINC000451019064   -0.1300
      8 C8         -6.5425    2.1657   51.4095 C.3     1  ZINC000451019064    0.1100
      9 N9         -5.9682    3.5116   51.4796 N.am    1  ZINC000451019064   -1.1200
     10 S10        -4.3743    3.7119   51.8820 S.o2    1  ZINC000451019064    2.6100
     11 O11        -4.1548    5.1104   51.7591 O.2     1  ZINC000451019064   -0.9600
     12 O12        -4.2447    3.0574   53.1366 O.2     1  ZINC000451019064   -0.9500
     13 C13        -3.4662    2.8097   50.5967 C.3     1  ZINC000451019064   -0.6300
     14 C14        -1.9623    2.9510   50.8402 C.3     1  ZINC000451019064   -0.1100
     15 C15        -1.1990    2.0952   49.8274 C.3     1  ZINC000451019064   -0.0800
     16 C16        -1.4688    2.6154   48.4141 C.3     1  ZINC000451019064   -0.1200
     17 C17        -0.7055    1.7596   47.4012 C.3     1  ZINC000451019064   -0.1200
     18 C18         0.7939    1.8370   47.6955 C.3     1  ZINC000451019064   -0.1200
     19 C19         1.0638    1.3167   49.1088 C.3     1  ZINC000451019064   -0.1200
     20 C20         0.3004    2.1726   50.1217 C.3     1  ZINC000451019064   -0.1200
     21 C21        -9.9515   -0.5638   53.5926 C.3     1  ZINC000451019064    0.0200
     22 C22       -11.4339   -0.4160   53.9453 C.3     1  ZINC000451019064    0.0900
     23 H23       -11.5687    0.4474   54.5968 H       1  ZINC000451019064    0.0700
     24 C24       -11.9167   -1.6780   54.6631 C.3     1  ZINC000451019064   -0.1500
     25 O25       -12.1890   -0.2298   52.7450 O.3     1  ZINC000451019064   -0.3800
     26 H26       -13.6829    1.0927   50.9752 H       1  ZINC000451019064    0.0700
     27 H27       -12.3226    1.8685   50.1289 H       1  ZINC000451019064    0.0700
     28 H28       -12.4843    0.0960   50.1159 H       1  ZINC000451019064    0.0600
     29 H29       -10.1724   -0.0943   50.9721 H       1  ZINC000451019064    0.0400
     30 H30        -9.9846    1.6732   51.0805 H       1  ZINC000451019064    0.0900
     31 H31        -7.5862   -0.1135   53.2441 H       1  ZINC000451019064    0.0400
     32 H32        -7.9451    0.1463   51.5202 H       1  ZINC000451019064    0.0800
     33 H33        -8.2587    2.6881   52.6021 H       1  ZINC000451019064    0.0800
     34 H34        -6.8897    2.0319   53.5314 H       1  ZINC000451019064    0.0800
     35 H35        -5.7407    1.4273   51.4245 H       1  ZINC000451019064    0.0800
     36 H36        -7.1145    2.0622   50.4875 H       1  ZINC000451019064    0.0700
     37 H37        -6.5215    4.2855   51.2902 H       1  ZINC000451019064    0.4200
     38 H38        -3.7420    1.7556   50.6289 H       1  ZINC000451019064    0.1300
     39 H39        -3.7161    3.2208   49.6187 H       1  ZINC000451019064    0.1400
     40 H40        -1.6722    3.9953   50.7254 H       1  ZINC000451019064    0.0800
     41 H41        -1.7248    2.6169   51.8503 H       1  ZINC000451019064    0.0800
     42 H42        -1.5312    1.0598   49.9030 H       1  ZINC000451019064    0.0800
     43 H43        -2.5370    2.5603   48.2044 H       1  ZINC000451019064    0.0600
     44 H44        -1.1367    3.6508   48.3385 H       1  ZINC000451019064    0.0700
     45 H45        -1.0377    0.7242   47.4769 H       1  ZINC000451019064    0.0600
     46 H46        -0.8977    2.1302   46.3944 H       1  ZINC000451019064    0.0600
     47 H47         1.3378    1.2273   46.9740 H       1  ZINC000451019064    0.0600
     48 H48         1.1261    2.8723   47.6199 H       1  ZINC000451019064    0.0600
     49 H49         0.7317    0.2814   49.1846 H       1  ZINC000451019064    0.0600
     50 H50         2.1320    1.3718   49.3186 H       1  ZINC000451019064    0.0600
     51 H51         0.6326    3.2079   50.0461 H       1  ZINC000451019064    0.0700
     52 H52         0.4927    1.8019   51.1286 H       1  ZINC000451019064    0.0600
     53 H53        -9.8093   -1.4576   52.9852 H       1  ZINC000451019064    0.0400
     54 H54        -9.3662   -0.6482   54.5082 H       1  ZINC000451019064    0.0900
     55 H55       -11.3386   -1.8202   55.5762 H       1  ZINC000451019064    0.0700
     56 H56       -12.9721   -1.5722   54.9139 H       1  ZINC000451019064    0.0700
     57 H57       -11.7830   -2.5408   54.0104 H       1  ZINC000451019064    0.0600
@<TRIPOS>BOND
     1     1     2    1
     2     1    26    1
     3     1    27    1
     4     1    28    1
     5     2     3    1
     6     2    25    1
     7     2     4    1
     8     4     5    1
     9     4    29    1
    10     4    30    1
    11     5     6    1
    12     5    21    1
    13     6     7    1
    14     6    31    1
    15     6    32    1
    16     7     8    1
    17     7    33    1
    18     7    34    1
    19     8     9    1
    20     8    35    1
    21     8    36    1
    22     9    10   am
    23     9    37    1
    24    10    11    2
    25    10    12    2
    26    10    13    1
    27    13    14    1
    28    13    38    1
    29    13    39    1
    30    14    15    1
    31    14    40    1
    32    14    41    1
    33    15    20    1
    34    15    16    1
    35    15    42    1
    36    16    17    1
    37    16    43    1
    38    16    44    1
    39    17    18    1
    40    17    45    1
    41    17    46    1
    42    18    19    1
    43    18    47    1
    44    18    48    1
    45    19    20    1
    46    19    49    1
    47    19    50    1
    48    20    51    1
    49    20    52    1
    50    21    22    1
    51    21    53    1
    52    21    54    1
    53    22    23    1
    54    22    24    1
    55    22    25    1
    56    24    55    1
    57    24    56    1
    58    24    57    1
@<TRIPOS>SUBSTRUCTURE
     1 ZINC000451019064        1 TEMP              0 ****  ****    0 ROOT


##########                                Name:    ZINC000623695407
##########                DOCK_Rotatable_Bonds:                  10
##########                         Heavy_Atoms:                  27
##########                    Molecular_Weight:             368.479
##########                DOCK_Rotatable_Bonds:                  10
##########                       Formal_Charge:           0.0299989
##########                     HBond_Acceptors:                   6
##########                        HBond_Donors:                   2
##########                         Heavy_Atoms:                  27
##########                          Grid_Score:          -31.314766
##########                     Grid_vdw_energy:          -29.097336
##########                      Grid_es_energy:           -2.217429
##########           Internal_energy_repulsive:           14.395581

@<TRIPOS>MOLECULE
ZINC000623695407
 55 57 1 0 0
SMALL
USER_CHARGES


@<TRIPOS>ATOM
      1 C1         -8.3082   -0.3680   61.7861 C.3     1  ZINC000623695407    0.0300
      2 O2         -7.9739   -0.9833   60.5404 O.3     1  ZINC000623695407   -0.3200
      3 C3         -8.6561   -0.5639   59.4423 C.ar    1  ZINC000623695407    0.1300
      4 C4         -8.1674    0.4874   58.6804 C.ar    1  ZINC000623695407   -0.2100
      5 C5         -8.8625    0.9116   57.5644 C.ar    1  ZINC000623695407   -0.0600
      6 C6        -10.0445    0.2895   57.2070 C.ar    1  ZINC000623695407   -0.1100
      7 C7        -10.8010    0.7546   55.9894 C.3     1  ZINC000623695407    0.0600
      8 N8         -9.9536    0.6031   54.7990 N.3     1  ZINC000623695407   -0.4600
      9 C9        -10.4461   -0.4858   53.9349 C.3     1  ZINC000623695407    0.0000
     10 C10       -10.1511    0.4144   52.7269 C.3     1  ZINC000623695407   -0.1300
     11 C11       -10.3548    1.5488   53.7408 C.3     1  ZINC000623695407    0.0100
     12 H12       -11.3909    1.8776   53.8222 H       1  ZINC000623695407    0.0900
     13 C13        -9.3777    2.7120   53.5586 C.3     1  ZINC000623695407    0.1600
     14 N14        -8.0100    2.2421   53.7927 N.am    1  ZINC000623695407   -0.7400
     15 C15        -7.0931    3.0748   54.3242 C.2     1  ZINC000623695407    0.7100
     16 O16        -7.4015    4.2155   54.6108 O.2     1  ZINC000623695407   -0.5900
     17 N17        -5.8344    2.6429   54.5380 N.am    1  ZINC000623695407   -0.7400
     18 C18        -4.8383    3.5476   55.1175 C.3     1  ZINC000623695407    0.1700
     19 H19        -5.2876    4.1039   55.9401 H       1  ZINC000623695407    0.0900
     20 C20        -3.6527    2.7335   55.6396 C.3     1  ZINC000623695407   -0.1600
     21 C21        -4.3529    4.5255   54.0455 C.3     1  ZINC000623695407   -0.0900
     22 C22        -3.8468    3.7541   52.8540 C.ar    1  ZINC000623695407   -0.0300
     23 C23        -2.5069    3.4148   52.7452 C.ar    1  ZINC000623695407   -0.1700
     24 C24        -2.0792    2.7068   51.6379 C.ar    1  ZINC000623695407    0.1000
     25 N25        -2.9288    2.3555   50.6926 N.ar    1  ZINC000623695407   -0.4900
     26 C26        -4.2096    2.6609   50.7627 C.ar    1  ZINC000623695407    0.1000
     27 C27        -4.7110    3.3619   51.8431 C.ar    1  ZINC000623695407   -0.1700
     28 C28       -10.5333   -0.7587   57.9645 C.ar    1  ZINC000623695407   -0.0700
     29 C29        -9.8394   -1.1900   59.0784 C.ar    1  ZINC000623695407   -0.1500
     30 H30        -7.6917   -0.7930   62.5782 H       1  ZINC000623695407    0.1000
     31 H31        -8.1277    0.7050   61.7213 H       1  ZINC000623695407    0.0600
     32 H32        -9.3602   -0.5467   62.0088 H       1  ZINC000623695407    0.0600
     33 H33        -7.2446    0.9740   58.9595 H       1  ZINC000623695407    0.1300
     34 H34        -8.4825    1.7299   56.9708 H       1  ZINC000623695407    0.1200
     35 H35       -11.7036    0.1552   55.8715 H       1  ZINC000623695407    0.0600
     36 H36       -11.0741    1.8030   56.1098 H       1  ZINC000623695407    0.0700
     37 H37        -9.8266   -1.3820   53.9701 H       1  ZINC000623695407    0.0900
     38 H38       -11.5065   -0.7001   54.0681 H       1  ZINC000623695407    0.0700
     39 H39        -9.1325    0.3324   52.3474 H       1  ZINC000623695407    0.1000
     40 H40       -10.9088    0.3736   51.9444 H       1  ZINC000623695407    0.0800
     41 H41        -9.4599    3.0999   52.5432 H       1  ZINC000623695407    0.0700
     42 H42        -9.6172    3.5025   54.2700 H       1  ZINC000623695407    0.0700
     43 H43        -7.7643    1.3318   53.5652 H       1  ZINC000623695407    0.3900
     44 H44        -5.5882    1.7333   54.3083 H       1  ZINC000623695407    0.3900
     45 H45        -2.9116    3.4067   56.0706 H       1  ZINC000623695407    0.0700
     46 H46        -3.9985    2.0369   56.4033 H       1  ZINC000623695407    0.0700
     47 H47        -3.2035    2.1772   54.8169 H       1  ZINC000623695407    0.0600
     48 H48        -5.1786    5.1675   53.7387 H       1  ZINC000623695407    0.1000
     49 H49        -3.5475    5.1382   54.4505 H       1  ZINC000623695407    0.0800
     50 H50        -1.8061    3.7004   53.5157 H       1  ZINC000623695407    0.1300
     51 H51        -1.0371    2.4386   51.5456 H       1  ZINC000623695407    0.1500
     52 H52        -4.8753    2.3562   49.9687 H       1  ZINC000623695407    0.1600
     53 H53        -5.7611    3.6088   51.8952 H       1  ZINC000623695407    0.1400
     54 H54       -11.4567   -1.2431   57.6830 H       1  ZINC000623695407    0.1200
     55 H55       -10.2216   -2.0089   59.6698 H       1  ZINC000623695407    0.1300
@<TRIPOS>BOND
     1     1     2    1
     2     1    30    1
     3     1    31    1
     4     1    32    1
     5     2     3    1
     6     3    29   ar
     7     3     4   ar
     8     4     5   ar
     9     4    33    1
    10     5     6   ar
    11     5    34    1
    12     6     7    1
    13     6    28   ar
    14     7     8    1
    15     7    35    1
    16     7    36    1
    17     8    11    1
    18     8     9    1
    19     9    10    1
    20     9    37    1
    21     9    38    1
    22    10    11    1
    23    10    39    1
    24    10    40    1
    25    11    12    1
    26    11    13    1
    27    13    14    1
    28    13    41    1
    29    13    42    1
    30    14    15   am
    31    14    43    1
    32    15    16    2
    33    15    17   am
    34    17    18    1
    35    17    44    1
    36    18    19    1
    37    18    20    1
    38    18    21    1
    39    20    45    1
    40    20    46    1
    41    20    47    1
    42    21    22    1
    43    21    48    1
    44    21    49    1
    45    22    27   ar
    46    22    23   ar
    47    23    24   ar
    48    23    50    1
    49    24    25   ar
    50    24    51    1
    51    25    26   ar
    52    26    27   ar
    53    26    52    1
    54    27    53    1
    55    28    29   ar
    56    28    54    1
    57    29    55    1
@<TRIPOS>SUBSTRUCTURE
     1 ZINC000623695407        1 TEMP              0 ****  ****    0 ROOT


##########                                Name:    ZINC000892249927
##########                DOCK_Rotatable_Bonds:                   8
##########                         Heavy_Atoms:                  27
##########                    Molecular_Weight:             364.487
##########                DOCK_Rotatable_Bonds:                   8
##########                       Formal_Charge:          -0.0300015
##########                     HBond_Acceptors:                   4
##########                        HBond_Donors:                   1
##########                         Heavy_Atoms:                  27
##########                          Grid_Score:          -31.308067
##########                     Grid_vdw_energy:          -29.307587
##########                      Grid_es_energy:           -2.000481
##########           Internal_energy_repulsive:           12.856523

@<TRIPOS>MOLECULE
ZINC000892249927
 55 58 1 0 0
SMALL
USER_CHARGES


@<TRIPOS>ATOM
      1 O1         -3.3994    4.2800   55.1897 O.2     1  ZINC000892249927   -0.5300
      2 C2         -2.7715    3.2846   54.8966 C.2     1  ZINC000892249927    0.5100
      3 C3         -2.3556    2.3127   55.9706 C.3     1  ZINC000892249927   -0.1400
      4 C4         -2.0157    3.0806   57.2496 C.3     1  ZINC000892249927   -0.1000
      5 C5         -0.8159    3.9944   56.9922 C.3     1  ZINC000892249927   -0.0800
      6 C6          0.4586    3.2421   57.2767 C.ar    1  ZINC000892249927   -0.0900
      7 C7          1.1800    2.6865   56.2367 C.ar    1  ZINC000892249927   -0.1100
      8 C8          2.3491    1.9963   56.4976 C.ar    1  ZINC000892249927   -0.1100
      9 C9          2.7969    1.8624   57.7985 C.ar    1  ZINC000892249927   -0.0500
     10 C10         4.0711    1.1096   58.0830 C.3     1  ZINC000892249927   -0.1200
     11 C11         4.1507    0.3258   59.3945 C.3     1  ZINC000892249927   -0.1800
     12 C12         4.0075   -0.4188   58.0655 C.3     1  ZINC000892249927   -0.1700
     13 C13         2.0762    2.4193   58.8383 C.ar    1  ZINC000892249927   -0.1200
     14 C14         0.9092    3.1126   58.5770 C.ar    1  ZINC000892249927   -0.1100
     15 N15        -2.4505    3.0448   53.6098 N.am    1  ZINC000892249927   -0.7300
     16 C16        -2.8549    3.9896   52.5658 C.3     1  ZINC000892249927    0.1400
     17 H17        -2.8571    5.0016   52.9707 H       1  ZINC000892249927    0.1000
     18 C18        -4.2592    3.6337   52.0684 C.3     1  ZINC000892249927   -0.1700
     19 C19        -4.2291    2.2414   51.4324 C.3     1  ZINC000892249927    0.0600
     20 O20        -3.2747    2.2254   50.3690 O.3     1  ZINC000892249927   -0.3700
     21 C21        -1.9356    2.5047   50.7826 C.3     1  ZINC000892249927    0.1400
     22 H22        -1.6243    1.7710   51.5261 H       1  ZINC000892249927    0.0700
     23 C23        -1.0163    2.4335   49.5906 C.ar    1  ZINC000892249927   -0.1400
     24 C24         0.3050    2.0441   49.7456 C.ar    1  ZINC000892249927   -0.0700
     25 C25         1.1143    1.9925   48.6207 C.ar    1  ZINC000892249927   -0.1700
     26 C26         0.5804    2.3286   47.3912 C.ar    1  ZINC000892249927    0.1000
     27 N27        -0.6819    2.6946   47.2811 N.ar    1  ZINC000892249927   -0.4900
     28 C28        -1.4815    2.7499   48.3280 C.ar    1  ZINC000892249927    0.1300
     29 C29        -1.8723    3.9092   51.3934 C.3     1  ZINC000892249927   -0.1500
     30 H30        -3.1728    1.6193   56.1695 H       1  ZINC000892249927    0.0900
     31 H31        -1.4796    1.7560   55.6375 H       1  ZINC000892249927    0.0900
     32 H32        -2.8731    3.6826   57.5505 H       1  ZINC000892249927    0.0700
     33 H33        -1.7712    2.3746   58.0431 H       1  ZINC000892249927    0.0700
     34 H34        -0.8222    4.3180   55.9515 H       1  ZINC000892249927    0.0700
     35 H35        -0.8764    4.8659   57.6442 H       1  ZINC000892249927    0.0700
     36 H36         0.8301    2.7911   55.2203 H       1  ZINC000892249927    0.1200
     37 H37         2.9123    1.5616   55.6851 H       1  ZINC000892249927    0.1200
     38 H38         4.9855    1.5796   57.7208 H       1  ZINC000892249927    0.1100
     39 H39         5.1176    0.2799   59.8955 H       1  ZINC000892249927    0.1000
     40 H40         3.2814    0.3544   60.0515 H       1  ZINC000892249927    0.1000
     41 H41         3.0441   -0.8801   57.8484 H       1  ZINC000892249927    0.1000
     42 H42         4.8803   -0.9547   57.6924 H       1  ZINC000892249927    0.1000
     43 H43         2.4263    2.3149   59.8547 H       1  ZINC000892249927    0.1200
     44 H44         0.3462    3.5477   59.3896 H       1  ZINC000892249927    0.1200
     45 H45        -1.9517    2.2467   53.3750 H       1  ZINC000892249927    0.4000
     46 H46        -4.9543    3.6356   52.9080 H       1  ZINC000892249927    0.0800
     47 H47        -4.5797    4.3658   51.3272 H       1  ZINC000892249927    0.0800
     48 H48        -3.9478    1.5043   52.1844 H       1  ZINC000892249927    0.0500
     49 H49        -5.2164    2.0004   51.0384 H       1  ZINC000892249927    0.1000
     50 H50         0.6952    1.7875   50.7195 H       1  ZINC000892249927    0.1300
     51 H51         2.1488    1.6939   48.7045 H       1  ZINC000892249927    0.1400
     52 H52         1.2041    2.2913   46.5103 H       1  ZINC000892249927    0.1600
     53 H53        -2.5097    3.0544   48.1988 H       1  ZINC000892249927    0.1600
     54 H54        -2.1442    4.6472   50.6387 H       1  ZINC000892249927    0.0900
     55 H55        -0.8610    4.1063   51.7492 H       1  ZINC000892249927    0.0800
@<TRIPOS>BOND
     1     1     2    2
     2     2     3    1
     3     2    15   am
     4     3     4    1
     5     3    30    1
     6     3    31    1
     7     4     5    1
     8     4    32    1
     9     4    33    1
    10     5     6    1
    11     5    34    1
    12     5    35    1
    13     6    14   ar
    14     6     7   ar
    15     7     8   ar
    16     7    36    1
    17     8     9   ar
    18     8    37    1
    19     9    10    1
    20     9    13   ar
    21    10    12    1
    22    10    11    1
    23    10    38    1
    24    11    12    1
    25    11    39    1
    26    11    40    1
    27    12    41    1
    28    12    42    1
    29    13    14   ar
    30    13    43    1
    31    14    44    1
    32    15    16    1
    33    15    45    1
    34    16    17    1
    35    16    29    1
    36    16    18    1
    37    18    19    1
    38    18    46    1
    39    18    47    1
    40    19    20    1
    41    19    48    1
    42    19    49    1
    43    20    21    1
    44    21    22    1
    45    21    23    1
    46    21    29    1
    47    23    28   ar
    48    23    24   ar
    49    24    25   ar
    50    24    50    1
    51    25    26   ar
    52    25    51    1
    53    26    27   ar
    54    26    52    1
    55    27    28   ar
    56    28    53    1
    57    29    54    1
    58    29    55    1
@<TRIPOS>SUBSTRUCTURE
     1 ZINC000892249927        1 TEMP              0 ****  ****    0 ROOT


##########                                Name:    ZINC000949401225
##########                DOCK_Rotatable_Bonds:                   7
##########                         Heavy_Atoms:                  24
##########                    Molecular_Weight:             332.403
##########                DOCK_Rotatable_Bonds:                   7
##########                       Formal_Charge:                0.03
##########                     HBond_Acceptors:                   7
##########                        HBond_Donors:                   1
##########                         Heavy_Atoms:                  24
##########                          Grid_Score:          -31.279921
##########                     Grid_vdw_energy:          -28.799353
##########                      Grid_es_energy:           -2.480568
##########           Internal_energy_repulsive:           14.913557

@<TRIPOS>MOLECULE
ZINC000949401225
 48 50 1 0 0
SMALL
USER_CHARGES


@<TRIPOS>ATOM
      1 C1          3.3481    0.0968   50.0847 C.3     1  ZINC000949401225    0.0700
      2 N2          2.1214    0.5667   49.4363 N.pl3   1  ZINC000949401225   -0.4500
      3 C3          1.9018    0.5662   48.0896 C.2     1  ZINC000949401225   -0.0100
      4 C4          0.6758    1.0639   47.8488 C.2     1  ZINC000949401225   -0.1700
      5 C5          0.1009    1.3951   49.1571 C.2     1  ZINC000949401225   -0.2400
      6 C6         -1.2289    1.9710   49.4193 C.2     1  ZINC000949401225    0.5900
      7 O7         -1.9834    2.2050   48.4946 O.2     1  ZINC000949401225   -0.5500
      8 N8         -1.6097    2.2387   50.6842 N.am    1  ZINC000949401225   -0.7300
      9 C9         -2.9318    2.8132   50.9450 C.3     1  ZINC000949401225    0.1200
     10 C10        -2.8590    3.7246   52.1718 C.3     1  ZINC000949401225    0.1200
     11 H11        -2.7712    3.1684   53.1051 H       1  ZINC000949401225    0.1000
     12 C12        -1.8287    4.8540   52.0340 C.3     1  ZINC000949401225   -0.1500
     13 C13        -2.9066    5.6824   52.7468 C.3     1  ZINC000949401225    0.1000
     14 N14        -3.9090    4.7539   52.2000 N.am    1  ZINC000949401225   -0.6400
     15 C15        -5.2139    4.8193   51.8690 C.2     1  ZINC000949401225    0.5500
     16 O16        -5.8252    5.8566   52.0148 O.2     1  ZINC000949401225   -0.5200
     17 C17        -5.9133    3.6036   51.3178 C.3     1  ZINC000949401225   -0.1400
     18 C18        -6.3282    2.6874   52.4708 C.3     1  ZINC000949401225    0.1500
     19 H19        -5.4808    2.5071   53.1324 H       1  ZINC000949401225    0.0900
     20 C20        -7.4976    3.3172   53.2597 C.3     1  ZINC000949401225   -0.1200
     21 C21        -8.3240    2.0693   53.6483 C.3     1  ZINC000949401225   -0.1600
     22 C22        -7.9643    1.0437   52.5961 C.2     1  ZINC000949401225    0.5200
     23 O23        -8.5928    0.0316   52.3690 O.2     1  ZINC000949401225   -0.5300
     24 N24        -6.8448    1.4166   51.9492 N.am    1  ZINC000949401225   -0.6200
     25 C25        -6.2246    0.6536   50.8631 C.3     1  ZINC000949401225    0.0900
     26 C26         1.0470    1.0557   50.0846 C.2     1  ZINC000949401225    0.0800
     27 H27         3.2577   -0.9667   50.3056 H       1  ZINC000949401225    0.0800
     28 H28         4.1959    0.2588   49.4190 H       1  ZINC000949401225    0.0900
     29 H29         3.5034    0.6487   51.0117 H       1  ZINC000949401225    0.0900
     30 H30         2.5986    0.2223   47.3396 H       1  ZINC000949401225    0.1700
     31 H31         0.2079    1.1942   46.8842 H       1  ZINC000949401225    0.1500
     32 H32        -1.0084    2.0509   51.4217 H       1  ZINC000949401225    0.4000
     33 H33        -3.2530    3.3934   50.0799 H       1  ZINC000949401225    0.0700
     34 H34        -3.6465    2.0112   51.1301 H       1  ZINC000949401225    0.0900
     35 H35        -0.9208    4.7044   52.6182 H       1  ZINC000949401225    0.1000
     36 H36        -1.6366    5.1605   51.0058 H       1  ZINC000949401225    0.1000
     37 H37        -2.8321    5.6483   53.8337 H       1  ZINC000949401225    0.0900
     38 H38        -2.9989    6.6979   52.3616 H       1  ZINC000949401225    0.0800
     39 H39        -6.7989    3.9139   50.7635 H       1  ZINC000949401225    0.1000
     40 H40        -5.2376    3.0664   50.6522 H       1  ZINC000949401225    0.1000
     41 H41        -7.1349    3.8365   54.1467 H       1  ZINC000949401225    0.1000
     42 H42        -8.0784    3.9881   52.6269 H       1  ZINC000949401225    0.0800
     43 H43        -8.0381    1.7159   54.6390 H       1  ZINC000949401225    0.1100
     44 H44        -9.3904    2.2924   53.6148 H       1  ZINC000949401225    0.1000
     45 H45        -6.8536   -0.2011   50.6142 H       1  ZINC000949401225    0.0800
     46 H46        -6.1158    1.2923   49.9865 H       1  ZINC000949401225    0.0600
     47 H47        -5.2429    0.3021   51.1806 H       1  ZINC000949401225    0.0600
     48 H48         0.9515    1.1670   51.1545 H       1  ZINC000949401225    0.1800
@<TRIPOS>BOND
     1     1     2    1
     2     1    27    1
     3     1    28    1
     4     1    29    1
     5     2    26    1
     6     2     3    1
     7     3     4    2
     8     3    30    1
     9     4     5    1
    10     4    31    1
    11     5     6    1
    12     5    26    2
    13     6     7    2
    14     6     8   am
    15     8     9    1
    16     8    32    1
    17     9    10    1
    18     9    33    1
    19     9    34    1
    20    10    11    1
    21    10    14    1
    22    10    12    1
    23    12    13    1
    24    12    35    1
    25    12    36    1
    26    13    14    1
    27    13    37    1
    28    13    38    1
    29    14    15   am
    30    15    16    2
    31    15    17    1
    32    17    18    1
    33    17    39    1
    34    17    40    1
    35    18    19    1
    36    18    24    1
    37    18    20    1
    38    20    21    1
    39    20    41    1
    40    20    42    1
    41    21    22    1
    42    21    43    1
    43    21    44    1
    44    22    23    2
    45    22    24   am
    46    24    25    1
    47    25    45    1
    48    25    46    1
    49    25    47    1
    50    26    48    1
@<TRIPOS>SUBSTRUCTURE
     1 ZINC000949401225        1 TEMP              0 ****  ****    0 ROOT


##########                                Name:    ZINC000957079511
##########                DOCK_Rotatable_Bonds:                   8
##########                         Heavy_Atoms:                  25
##########                    Molecular_Weight:             362.453
##########                DOCK_Rotatable_Bonds:                   8
##########                       Formal_Charge:        -4.32134e-07
##########                     HBond_Acceptors:                   8
##########                        HBond_Donors:                   2
##########                         Heavy_Atoms:                  25
##########                          Grid_Score:          -31.271061
##########                     Grid_vdw_energy:          -30.238951
##########                      Grid_es_energy:           -1.032110
##########           Internal_energy_repulsive:            9.682526

@<TRIPOS>MOLECULE
ZINC000957079511
 47 49 1 0 0
SMALL
USER_CHARGES


@<TRIPOS>ATOM
      1 C1        -14.5751   -2.8870   58.5774 C.3     1  ZINC000957079511   -0.0700
      2 C2        -14.7169   -3.6197   57.2681 C.2     1  ZINC000957079511    0.0300
      3 C3        -14.5824   -3.0812   56.0413 C.2     1  ZINC000957079511   -0.0200
      4 C4        -14.2641   -1.6433   55.7213 C.3     1  ZINC000957079511   -0.0600
      5 C5        -12.7693   -1.4591   55.6697 C.2     1  ZINC000957079511    0.5100
      6 O6        -12.0436   -2.2155   56.2797 O.2     1  ZINC000957079511   -0.5200
      7 N7        -12.2388   -0.4538   54.9456 N.am    1  ZINC000957079511   -0.7200
      8 C8        -10.7858   -0.2736   54.8967 C.3     1  ZINC000957079511    0.1400
      9 H9        -10.2724   -1.2314   54.9811 H       1  ZINC000957079511    0.1100
     10 C10       -10.3109    0.7095   55.9958 C.3     1  ZINC000957079511    0.0800
     11 N11        -9.0439    1.2634   55.4847 N.am    1  ZINC000957079511   -0.6200
     12 C12        -8.0538    1.7832   56.2370 C.2     1  ZINC000957079511    0.5400
     13 O13        -7.0499    2.2104   55.7072 O.2     1  ZINC000957079511   -0.5100
     14 C14        -8.1939    1.8333   57.7367 C.3     1  ZINC000957079511    0.0500
     15 O15        -7.9677    0.5312   58.2801 O.3     1  ZINC000957079511   -0.2800
     16 C16        -8.1743    0.3746   59.6174 C.2     1  ZINC000957079511    0.1200
     17 C17        -7.9929   -0.7928   60.2418 C.2     1  ZINC000957079511   -0.3300
     18 S18        -8.3549   -0.6094   61.9531 S.3     1  ZINC000957079511    0.1300
     19 C19        -8.7435    1.0901   61.7209 C.2     1  ZINC000957079511   -0.1800
     20 C20        -8.5834    1.4157   60.4368 C.2     1  ZINC000957079511   -0.1400
     21 C21        -9.0389    1.1542   54.0185 C.3     1  ZINC000957079511    0.1100
     22 C22       -10.3610    0.4731   53.6047 C.3     1  ZINC000957079511   -0.1100
     23 H23       -11.1077    1.2172   53.3269 H       1  ZINC000957079511    0.0900
     24 C24       -10.1269   -0.5108   52.4567 C.3     1  ZINC000957079511   -0.1400
     25 N25       -14.7895   -4.0908   55.1406 N.pl3   1  ZINC000957079511   -0.5600
     26 C26       -15.0438   -5.2121   55.8490 C.2     1  ZINC000957079511    0.2000
     27 N27       -14.9938   -4.9239   57.1208 N.2     1  ZINC000957079511   -0.4900
     28 H28       -13.5360   -2.9253   58.9045 H       1  ZINC000957079511    0.0700
     29 H29       -14.8767   -1.8477   58.4467 H       1  ZINC000957079511    0.0600
     30 H30       -15.2098   -3.3579   59.3280 H       1  ZINC000957079511    0.0700
     31 H31       -14.6960   -1.3818   54.7553 H       1  ZINC000957079511    0.1000
     32 H32       -14.6833   -0.9980   56.4933 H       1  ZINC000957079511    0.1200
     33 H33       -12.8192    0.1505   54.4566 H       1  ZINC000957079511    0.4000
     34 H34       -11.0435    1.5046   56.1357 H       1  ZINC000957079511    0.0800
     35 H35       -10.1424    0.1787   56.9326 H       1  ZINC000957079511    0.0800
     36 H36        -7.4629    2.5301   58.1467 H       1  ZINC000957079511    0.0900
     37 H37        -9.1988    2.1660   57.9967 H       1  ZINC000957079511    0.0900
     38 H38        -7.6733   -1.7092   59.7679 H       1  ZINC000957079511    0.1700
     39 H39        -9.0595    1.7680   62.4999 H       1  ZINC000957079511    0.1800
     40 H40        -8.7660    2.4124   60.0629 H       1  ZINC000957079511    0.1500
     41 H41        -8.9778    2.1472   53.5731 H       1  ZINC000957079511    0.0800
     42 H42        -8.1931    0.5477   53.6949 H       1  ZINC000957079511    0.0800
     43 H43        -9.4005   -1.2627   52.7651 H       1  ZINC000957079511    0.0600
     44 H44       -11.0671   -0.9981   52.1985 H       1  ZINC000957079511    0.0600
     45 H45        -9.7464    0.0277   51.5887 H       1  ZINC000957079511    0.0700
     46 H46       -14.7594   -4.0152   54.1740 H       1  ZINC000957079511    0.4200
     47 H47       -15.2503   -6.1868   55.4322 H       1  ZINC000957079511    0.2100
@<TRIPOS>BOND
     1     1     2    1
     2     1    28    1
     3     1    29    1
     4     1    30    1
     5     2    27    1
     6     2     3    2
     7     3     4    1
     8     3    25    1
     9     4     5    1
    10     4    31    1
    11     4    32    1
    12     5     6    2
    13     5     7   am
    14     7     8    1
    15     7    33    1
    16     8     9    1
    17     8    22    1
    18     8    10    1
    19    10    11    1
    20    10    34    1
    21    10    35    1
    22    11    12   am
    23    11    21    1
    24    12    13    2
    25    12    14    1
    26    14    15    1
    27    14    36    1
    28    14    37    1
    29    15    16    1
    30    16    20    1
    31    16    17    2
    32    17    18    1
    33    17    38    1
    34    18    19    1
    35    19    20    2
    36    19    39    1
    37    20    40    1
    38    21    22    1
    39    21    41    1
    40    21    42    1
    41    22    23    1
    42    22    24    1
    43    24    43    1
    44    24    44    1
    45    24    45    1
    46    25    26    1
    47    25    46    1
    48    26    27    2
    49    26    47    1
@<TRIPOS>SUBSTRUCTURE
     1 ZINC000957079511        1 TEMP              0 ****  ****    0 ROOT


##########                                Name:    ZINC000600609084
##########                DOCK_Rotatable_Bonds:                   8
##########                         Heavy_Atoms:                  30
##########                    Molecular_Weight:             422.548
##########                DOCK_Rotatable_Bonds:                   8
##########                       Formal_Charge:           0.0100005
##########                     HBond_Acceptors:                   6
##########                        HBond_Donors:                   2
##########                         Heavy_Atoms:                  30
##########                          Grid_Score:          -31.260998
##########                     Grid_vdw_energy:          -30.081387
##########                      Grid_es_energy:           -1.179610
##########           Internal_energy_repulsive:           23.389515

@<TRIPOS>MOLECULE
ZINC000600609084
 56 59 1 0 0
SMALL
USER_CHARGES


@<TRIPOS>ATOM
      1 O1         -9.7712   -1.1792   52.9758 O.2     1  ZINC000600609084   -0.5300
      2 C2        -10.2420   -0.7164   53.9932 C.2     1  ZINC000600609084    0.5200
      3 C3        -11.3596   -1.4372   54.7021 C.3     1  ZINC000600609084   -0.1500
      4 C4        -11.0106   -1.5874   56.1841 C.3     1  ZINC000600609084    0.1300
      5 N5        -12.2433   -1.6267   56.9746 N.am    1  ZINC000600609084   -1.1200
      6 S6        -12.3046   -2.5175   58.3693 S.o2    1  ZINC000600609084    2.7000
      7 O7        -13.5593   -2.2326   58.9725 O.2     1  ZINC000600609084   -0.9600
      8 O8        -11.8884   -3.8318   58.0246 O.2     1  ZINC000600609084   -0.9500
      9 C9        -11.0737   -1.8742   59.4536 C.ar    1  ZINC000600609084   -0.6700
     10 C10        -9.7363   -2.2063   59.2476 C.ar    1  ZINC000600609084   -0.0400
     11 C11        -8.7607   -1.7265   60.0667 C.ar    1  ZINC000600609084   -0.1200
     12 C12        -9.1040   -0.8832   61.1368 C.ar    1  ZINC000600609084   -0.0100
     13 C13        -8.1249   -0.3677   62.0033 C.ar    1  ZINC000600609084   -0.1200
     14 C14        -8.4947    0.4464   63.0291 C.ar    1  ZINC000600609084   -0.0900
     15 C15        -9.8326    0.7787   63.2352 C.ar    1  ZINC000600609084   -0.1200
     16 C16       -10.8080    0.2985   62.4166 C.ar    1  ZINC000600609084   -0.0900
     17 C17       -10.4646   -0.5453   61.3464 C.ar    1  ZINC000600609084   -0.0800
     18 C18       -11.4429   -1.0555   60.4766 C.ar    1  ZINC000600609084    0.0200
     19 N19        -9.7618    0.4396   54.4929 N.am    1  ZINC000600609084   -0.7200
     20 C20        -8.6754    1.1402   53.8038 C.3     1  ZINC000600609084    0.1400
     21 H21        -7.8089    0.4856   53.7112 H       1  ZINC000600609084    0.1000
     22 C22        -9.1426    1.5963   52.4104 C.3     1  ZINC000600609084   -0.1300
     23 C23        -9.0286    3.1345   52.3890 C.3     1  ZINC000600609084   -0.1300
     24 C24        -9.0983    3.5414   53.8818 C.3     1  ZINC000600609084   -0.1200
     25 C25        -8.2929    2.4166   54.5811 C.3     1  ZINC000600609084   -0.0700
     26 H26        -7.2227    2.6069   54.5002 H       1  ZINC000600609084    0.0900
     27 C27        -8.6985    2.2987   56.0277 C.ar    1  ZINC000600609084   -0.0600
     28 C28       -10.0355    2.3406   56.3763 C.ar    1  ZINC000600609084   -0.1100
     29 C29       -10.4075    2.2326   57.7033 C.ar    1  ZINC000600609084   -0.1200
     30 C30        -9.4424    2.0820   58.6816 C.ar    1  ZINC000600609084   -0.1200
     31 C31        -8.1055    2.0392   58.3328 C.ar    1  ZINC000600609084   -0.1200
     32 C32        -7.7338    2.1430   57.0055 C.ar    1  ZINC000600609084   -0.1100
     33 H33       -12.2819   -0.8650   54.6022 H       1  ZINC000600609084    0.1000
     34 H34       -11.4944   -2.4238   54.2587 H       1  ZINC000600609084    0.1000
     35 H35       -10.4530   -2.5120   56.3342 H       1  ZINC000600609084    0.0900
     36 H36       -10.4020   -0.7407   56.5017 H       1  ZINC000600609084    0.0800
     37 H37       -13.0237   -1.1309   56.6811 H       1  ZINC000600609084    0.4200
     38 H38        -9.4697   -2.8547   58.4260 H       1  ZINC000600609084    0.1400
     39 H39        -7.7282   -1.9928   59.8952 H       1  ZINC000600609084    0.1400
     40 H40        -7.0843   -0.6169   61.8561 H       1  ZINC000600609084    0.1300
     41 H41        -7.7403    0.8408   63.6937 H       1  ZINC000600609084    0.1300
     42 H42       -10.0992    1.4266   64.0571 H       1  ZINC000600609084    0.1300
     43 H43       -11.8406    0.5641   62.5888 H       1  ZINC000600609084    0.1300
     44 H44       -12.4829   -0.8028   60.6212 H       1  ZINC000600609084    0.1500
     45 H45       -10.1357    0.8075   55.3088 H       1  ZINC000600609084    0.4000
     46 H46        -8.5023    1.1636   51.6418 H       1  ZINC000600609084    0.0800
     47 H47       -10.1778    1.2962   52.2469 H       1  ZINC000600609084    0.0700
     48 H48        -8.0770    3.4405   51.9542 H       1  ZINC000600609084    0.0700
     49 H49        -9.8600    3.5710   51.8354 H       1  ZINC000600609084    0.0700
     50 H50        -8.6256    4.5107   54.0406 H       1  ZINC000600609084    0.0700
     51 H51       -10.1307    3.5521   54.2315 H       1  ZINC000600609084    0.0700
     52 H52       -10.7894    2.4582   55.6121 H       1  ZINC000600609084    0.1200
     53 H53       -11.4520    2.2661   57.9757 H       1  ZINC000600609084    0.1200
     54 H54        -9.7331    1.9984   59.7184 H       1  ZINC000600609084    0.1200
     55 H55        -7.3516    1.9220   59.0972 H       1  ZINC000600609084    0.1200
     56 H56        -6.6893    2.1095   56.7331 H       1  ZINC000600609084    0.1200
@<TRIPOS>BOND
     1     1     2    2
     2     2     3    1
     3     2    19   am
     4     3     4    1
     5     3    33    1
     6     3    34    1
     7     4     5    1
     8     4    35    1
     9     4    36    1
    10     5     6   am
    11     5    37    1
    12     6     7    2
    13     6     8    2
    14     6     9    1
    15     9    18   ar
    16     9    10   ar
    17    10    11   ar
    18    10    38    1
    19    11    12   ar
    20    11    39    1
    21    12    17   ar
    22    12    13   ar
    23    13    14   ar
    24    13    40    1
    25    14    15   ar
    26    14    41    1
    27    15    16   ar
    28    15    42    1
    29    16    17   ar
    30    16    43    1
    31    17    18   ar
    32    18    44    1
    33    19    20    1
    34    19    45    1
    35    20    21    1
    36    20    25    1
    37    20    22    1
    38    22    23    1
    39    22    46    1
    40    22    47    1
    41    23    24    1
    42    23    48    1
    43    23    49    1
    44    24    25    1
    45    24    50    1
    46    24    51    1
    47    25    26    1
    48    25    27    1
    49    27    32   ar
    50    27    28   ar
    51    28    29   ar
    52    28    52    1
    53    29    30   ar
    54    29    53    1
    55    30    31   ar
    56    30    54    1
    57    31    32   ar
    58    31    55    1
    59    32    56    1
@<TRIPOS>SUBSTRUCTURE
     1 ZINC000600609084        1 TEMP              0 ****  ****    0 ROOT


##########                                Name:    ZINC000533131987
##########                DOCK_Rotatable_Bonds:                  11
##########                         Heavy_Atoms:                  30
##########                    Molecular_Weight:             419.403
##########                DOCK_Rotatable_Bonds:                  11
##########                       Formal_Charge:                0.01
##########                     HBond_Acceptors:                   9
##########                        HBond_Donors:                   3
##########                         Heavy_Atoms:                  30
##########                          Grid_Score:          -31.259920
##########                     Grid_vdw_energy:          -29.373980
##########                      Grid_es_energy:           -1.885941
##########           Internal_energy_repulsive:           23.183680

@<TRIPOS>MOLECULE
ZINC000533131987
 50 52 1 0 0
SMALL
USER_CHARGES


@<TRIPOS>ATOM
      1 O1         -4.2775    4.4678   53.0490 O.2     1  ZINC000533131987   -0.5700
      2 C2         -3.9547    3.4564   53.6417 C.2     1  ZINC000533131987    0.7100
      3 N3         -4.8042    2.8912   54.5222 N.am    1  ZINC000533131987   -0.7400
      4 C4         -6.1142    3.4986   54.7695 C.3     1  ZINC000533131987    0.1400
      5 C5         -6.9949    2.5147   55.5423 C.3     1  ZINC000533131987   -0.0900
      6 H6         -6.6580    1.4962   55.3489 H       1  ZINC000533131987    0.0900
      7 C7         -6.8951    2.8091   57.0404 C.3     1  ZINC000533131987    0.0800
      8 O8         -7.2691    1.6453   57.7805 O.3     1  ZINC000533131987   -0.5600
      9 C9         -8.4482    2.6660   55.0885 C.3     1  ZINC000533131987   -0.0900
     10 C10        -8.8232    1.5020   54.2080 C.ar    1  ZINC000533131987    0.0000
     11 C11        -8.0730    1.2168   53.0827 C.ar    1  ZINC000533131987   -0.1100
     12 C12        -8.4171    0.1489   52.2749 C.ar    1  ZINC000533131987   -0.0800
     13 C13        -9.5110   -0.6338   52.5928 C.ar    1  ZINC000533131987   -0.1300
     14 C14       -10.2610   -0.3491   53.7188 C.ar    1  ZINC000533131987   -0.0700
     15 C15        -9.9145    0.7159   54.5288 C.ar    1  ZINC000533131987   -0.1700
     16 C16       -10.7319    1.0262   55.7562 C.3     1  ZINC000533131987    0.5100
     17 F17       -11.8116    0.1401   55.8338 F       1  ZINC000533131987   -0.1800
     18 F18        -9.9325    0.8882   56.8960 F       1  ZINC000533131987   -0.1700
     19 F19       -11.2103    2.3387   55.6784 F       1  ZINC000533131987   -0.1800
     20 N20        -2.7496    2.8977   53.4142 N.am    1  ZINC000533131987   -0.6900
     21 C21        -1.8673    3.4847   52.4998 C.ar    1  ZINC000533131987    0.1600
     22 C22        -1.1083    4.5861   52.8759 C.ar    1  ZINC000533131987   -0.1000
     23 C23        -0.2353    5.1696   51.9765 C.ar    1  ZINC000533131987   -0.1000
     24 C24        -0.1121    4.6621   50.6994 C.ar    1  ZINC000533131987   -0.1000
     25 C25        -0.8704    3.5557   50.3118 C.ar    1  ZINC000533131987    0.0000
     26 C26        -0.7400    3.0096   48.9441 C.2     1  ZINC000533131987    0.2300
     27 N27         0.3232    3.1015   48.1806 N.2     1  ZINC000533131987   -0.4700
     28 C28         0.0685    2.4883   47.0149 C.2     1  ZINC000533131987   -0.0400
     29 C29        -1.1872    2.0077   47.0677 C.2     1  ZINC000533131987   -0.0700
     30 O30        -1.6886    2.3304   48.2764 O.3     1  ZINC000533131987   -0.2000
     31 C31        -1.7465    2.9637   51.2208 C.ar    1  ZINC000533131987   -0.1000
     32 H32        -4.5482    2.0821   54.9921 H       1  ZINC000533131987    0.4000
     33 H33        -5.9876    4.4097   55.3543 H       1  ZINC000533131987    0.0700
     34 H34        -6.5880    3.7405   53.8181 H       1  ZINC000533131987    0.0800
     35 H35        -5.8701    3.0840   57.2891 H       1  ZINC000533131987    0.0400
     36 H36        -7.5637    3.6316   57.2945 H       1  ZINC000533131987    0.0600
     37 H37        -7.8634    1.0499   57.3035 H       1  ZINC000533131987    0.3800
     38 H38        -9.1010    2.6866   55.9612 H       1  ZINC000533131987    0.0800
     39 H39        -8.5595    3.5951   54.5295 H       1  ZINC000533131987    0.0900
     40 H40        -7.2182    1.8284   52.8344 H       1  ZINC000533131987    0.1300
     41 H41        -7.8312   -0.0736   51.3952 H       1  ZINC000533131987    0.1300
     42 H42        -9.7803   -1.4676   51.9613 H       1  ZINC000533131987    0.1300
     43 H43       -11.1160   -0.9604   53.9670 H       1  ZINC000533131987    0.1300
     44 H44        -2.4936    2.0886   53.8841 H       1  ZINC000533131987    0.4100
     45 H45        -1.2007    4.9879   53.8742 H       1  ZINC000533131987    0.1500
     46 H46         0.3518    6.0257   52.2744 H       1  ZINC000533131987    0.1400
     47 H47         0.5706    5.1209   49.9995 H       1  ZINC000533131987    0.1300
     48 H48         0.7500    2.3968   46.1821 H       1  ZINC000533131987    0.1900
     49 H49        -1.6971    1.4614   46.2881 H       1  ZINC000533131987    0.2200
     50 H50        -2.3357    2.1077   50.9267 H       1  ZINC000533131987    0.1400
@<TRIPOS>BOND
     1     1     2    2
     2     2     3   am
     3     2    20   am
     4     3     4    1
     5     3    32    1
     6     4     5    1
     7     4    33    1
     8     4    34    1
     9     5     6    1
    10     5     7    1
    11     5     9    1
    12     7     8    1
    13     7    35    1
    14     7    36    1
    15     8    37    1
    16     9    10    1
    17     9    38    1
    18     9    39    1
    19    10    15   ar
    20    10    11   ar
    21    11    12   ar
    22    11    40    1
    23    12    13   ar
    24    12    41    1
    25    13    14   ar
    26    13    42    1
    27    14    15   ar
    28    14    43    1
    29    15    16    1
    30    16    17    1
    31    16    18    1
    32    16    19    1
    33    20    21    1
    34    20    44    1
    35    21    31   ar
    36    21    22   ar
    37    22    23   ar
    38    22    45    1
    39    23    24   ar
    40    23    46    1
    41    24    25   ar
    42    24    47    1
    43    25    26    1
    44    25    31   ar
    45    26    30    1
    46    26    27    2
    47    27    28    1
    48    28    29    2
    49    28    48    1
    50    29    30    1
    51    29    49    1
    52    31    50    1
@<TRIPOS>SUBSTRUCTURE
     1 ZINC000533131987        1 TEMP              0 ****  ****    0 ROOT


##########                                Name:    ZINC000442864105
##########                DOCK_Rotatable_Bonds:                   7
##########                         Heavy_Atoms:                  30
##########                    Molecular_Weight:              414.39
##########                DOCK_Rotatable_Bonds:                   7
##########                       Formal_Charge:           0.0200001
##########                     HBond_Acceptors:                  10
##########                        HBond_Donors:                   2
##########                         Heavy_Atoms:                  30
##########                          Grid_Score:          -31.248793
##########                     Grid_vdw_energy:          -30.876642
##########                      Grid_es_energy:           -0.372150
##########           Internal_energy_repulsive:           17.439560

@<TRIPOS>MOLECULE
ZINC000442864105
 47 50 1 0 0
SMALL
USER_CHARGES


@<TRIPOS>ATOM
      1 C1          1.4198    3.0843   45.1925 C.3     1  ZINC000442864105    0.0800
      2 N2          2.0303    2.1011   46.0908 N.pl3   1  ZINC000442864105   -0.4900
      3 C3          3.2128    1.4497   45.8579 C.2     1  ZINC000442864105    0.0300
      4 C4          3.4854    0.6189   46.8758 C.2     1  ZINC000442864105   -0.1900
      5 C5          2.3889    0.7477   47.8399 C.ar    1  ZINC000442864105   -0.1600
      6 C6          2.1085    0.1546   49.0724 C.ar    1  ZINC000442864105   -0.0200
      7 C7          0.9712    0.4944   49.7477 C.ar    1  ZINC000442864105   -0.2100
      8 C8          0.0863    1.4308   49.2151 C.ar    1  ZINC000442864105    0.2400
      9 N9         -1.0736    1.7678   49.9189 N.pl3   1  ZINC000442864105   -0.7400
     10 C10        -1.5663    3.1473   49.9012 C.3     1  ZINC000442864105    0.1100
     11 C11        -2.1579    3.4866   51.2451 C.2     1  ZINC000442864105    0.5100
     12 O12        -1.9967    4.5922   51.7171 O.2     1  ZINC000442864105   -0.5100
     13 N13        -2.8662    2.5615   51.9226 N.am    1  ZINC000442864105   -0.6600
     14 C14        -3.4157    2.8766   53.1708 C.ar    1  ZINC000442864105    0.1600
     15 C15        -2.5867    3.0853   54.2632 C.ar    1  ZINC000442864105   -0.0700
     16 C16        -3.1315    3.3963   55.4946 C.ar    1  ZINC000442864105   -0.1600
     17 C17        -2.2289    3.6227   56.6800 C.3     1  ZINC000442864105    0.5100
     18 F18        -2.8729    4.4513   57.6050 F       1  ZINC000442864105   -0.1700
     19 F19        -1.9320    2.3948   57.2811 F       1  ZINC000442864105   -0.1700
     20 F20        -1.0438    4.2321   56.2540 F       1  ZINC000442864105   -0.1700
     21 C21        -4.5025    3.5008   55.6422 C.ar    1  ZINC000442864105   -0.0600
     22 C22        -5.3361    3.2941   54.5593 C.ar    1  ZINC000442864105   -0.1100
     23 C23        -4.7980    2.9873   53.3186 C.ar    1  ZINC000442864105    0.1500
     24 N24        -5.6420    2.7771   52.2184 N.pl3   1  ZINC000442864105   -0.3300
     25 C25        -6.9881    2.7281   52.2308 C.2     1  ZINC000442864105    0.2800
     26 N26        -7.3972    2.5146   51.0062 N.2     1  ZINC000442864105   -0.5300
     27 C27        -6.3490    2.4224   50.1889 C.2     1  ZINC000442864105    0.2300
     28 N28        -5.2524    2.5818   50.8833 N.2     1  ZINC000442864105   -0.3400
     29 C29         0.3478    2.0297   47.9948 C.ar    1  ZINC000442864105   -0.2100
     30 C30         1.5042    1.6981   47.2979 C.ar    1  ZINC000442864105    0.1500
     31 H31         1.7818    4.0810   45.4448 H       1  ZINC000442864105    0.0700
     32 H32         1.6875    2.8507   44.1621 H       1  ZINC000442864105    0.0800
     33 H33         0.3358    3.0529   45.3024 H       1  ZINC000442864105    0.0800
     34 H34         3.8337    1.5847   44.9845 H       1  ZINC000442864105    0.1700
     35 H35         4.3489   -0.0233   46.9670 H       1  ZINC000442864105    0.1400
     36 H36         2.7894   -0.5720   49.4907 H       1  ZINC000442864105    0.1200
     37 H37         0.7555    0.0344   50.7006 H       1  ZINC000442864105    0.1200
     38 H38        -1.5522    1.0882   50.4188 H       1  ZINC000442864105    0.4100
     39 H39        -0.7404    3.8253   49.6862 H       1  ZINC000442864105    0.1000
     40 H40        -2.3309    3.2503   49.1313 H       1  ZINC000442864105    0.1000
     41 H41        -2.9952    1.6773   51.5451 H       1  ZINC000442864105    0.4300
     42 H42        -1.5156    3.0045   54.1514 H       1  ZINC000442864105    0.1700
     43 H43        -4.9231    3.7444   56.6066 H       1  ZINC000442864105    0.1500
     44 H44        -6.4064    3.3762   54.6783 H       1  ZINC000442864105    0.1500
     45 H45        -7.6192    2.8439   53.0995 H       1  ZINC000442864105    0.2300
     46 H46        -6.3973    2.2484   49.1241 H       1  ZINC000442864105    0.2300
     47 H47        -0.3417    2.7545   47.5877 H       1  ZINC000442864105    0.1200
@<TRIPOS>BOND
     1     1     2    1
     2     1    31    1
     3     1    32    1
     4     1    33    1
     5     2    30    1
     6     2     3    1
     7     3     4    2
     8     3    34    1
     9     4     5    1
    10     4    35    1
    11     5    30   ar
    12     5     6   ar
    13     6     7   ar
    14     6    36    1
    15     7     8   ar
    16     7    37    1
    17     8     9    1
    18     8    29   ar
    19     9    10    1
    20     9    38    1
    21    10    11    1
    22    10    39    1
    23    10    40    1
    24    11    12    2
    25    11    13   am
    26    13    14    1
    27    13    41    1
    28    14    23   ar
    29    14    15   ar
    30    15    16   ar
    31    15    42    1
    32    16    17    1
    33    16    21   ar
    34    17    18    1
    35    17    19    1
    36    17    20    1
    37    21    22   ar
    38    21    43    1
    39    22    23   ar
    40    22    44    1
    41    23    24    1
    42    24    28    1
    43    24    25    1
    44    25    26    2
    45    25    45    1
    46    26    27    1
    47    27    28    2
    48    27    46    1
    49    29    30   ar
    50    29    47    1
@<TRIPOS>SUBSTRUCTURE
     1 ZINC000442864105        1 TEMP              0 ****  ****    0 ROOT


##########                                Name:    ZINC000859608860
##########                DOCK_Rotatable_Bonds:                   8
##########                         Heavy_Atoms:                  24
##########                    Molecular_Weight:             394.268
##########                DOCK_Rotatable_Bonds:                   8
##########                       Formal_Charge:          -0.0200003
##########                     HBond_Acceptors:                   6
##########                        HBond_Donors:                   1
##########                         Heavy_Atoms:                  24
##########                          Grid_Score:          -31.241970
##########                     Grid_vdw_energy:          -30.771244
##########                      Grid_es_energy:           -0.470727
##########           Internal_energy_repulsive:            9.873411

@<TRIPOS>MOLECULE
ZINC000859608860
 44 45 1 0 0
SMALL
USER_CHARGES


@<TRIPOS>ATOM
      1 C1         -6.7056    2.3841   51.5727 C.3     1  ZINC000859608860   -0.1400
      2 C2         -7.8335    1.9532   52.5124 C.3     1  ZINC000859608860   -0.0800
      3 C3         -7.5073    2.3996   53.9390 C.3     1  ZINC000859608860   -0.1400
      4 C4         -9.1459    2.5989   52.0634 C.3     1  ZINC000859608860   -0.1400
      5 C5         -7.9752    0.4303   52.4744 C.3     1  ZINC000859608860    0.1300
      6 N6         -9.1123    0.0248   53.3044 N.am    1  ZINC000859608860   -0.7300
      7 C7        -10.2403   -0.4319   52.7253 C.2     1  ZINC000859608860    0.5100
      8 O8        -10.3146   -0.5058   51.5171 O.2     1  ZINC000859608860   -0.5100
      9 C9        -11.4093   -0.8508   53.5791 C.3     1  ZINC000859608860    0.0500
     10 O10       -10.9496   -1.1237   54.9291 O.3     1  ZINC000859608860   -0.3100
     11 C11       -11.6467   -2.0313   55.6413 C.2     1  ZINC000859608860    0.5600
     12 O12       -12.4901   -2.7150   55.0948 O.2     1  ZINC000859608860   -0.5100
     13 C13       -11.3868   -2.1944   57.0805 C.2     1  ZINC000859608860   -0.0400
     14 C14       -10.6911   -1.3312   57.8772 C.2     1  ZINC000859608860    0.0500
     15 N15       -10.6924   -1.8648   59.1290 N.pl3   1  ZINC000859608860   -0.4100
     16 C16       -10.0907   -1.3089   60.2672 C.ar    1  ZINC000859608860    0.1400
     17 C17       -10.8759   -0.8706   61.3248 C.ar    1  ZINC000859608860   -0.1200
     18 C18       -10.2809   -0.3239   62.4450 C.ar    1  ZINC000859608860   -0.0600
     19 C19        -8.9035   -0.2128   62.5135 C.ar    1  ZINC000859608860   -0.1000
     20 Br20       -8.0923    0.5363   64.0486 Br      1  ZINC000859608860   -0.0300
     21 C21        -8.1187   -0.6492   61.4610 C.ar    1  ZINC000859608860   -0.0600
     22 C22        -8.7086   -1.2011   60.3406 C.ar    1  ZINC000859608860   -0.1200
     23 C23       -11.3838   -3.0361   59.0760 C.2     1  ZINC000859608860    0.2000
     24 N24       -11.8006   -3.2279   57.8581 N.2     1  ZINC000859608860   -0.4300
     25 H25        -5.7705    1.9242   51.8926 H       1  ZINC000859608860    0.0500
     26 H26        -6.9380    2.0661   50.5564 H       1  ZINC000859608860    0.0600
     27 H27        -6.6046    3.4691   51.5998 H       1  ZINC000859608860    0.0600
     28 H28        -7.4064    3.4846   53.9661 H       1  ZINC000859608860    0.0600
     29 H29        -8.3110    2.0928   54.6085 H       1  ZINC000859608860    0.0600
     30 H30        -6.5723    1.9397   54.2589 H       1  ZINC000859608860    0.0500
     31 H31        -9.3783    2.2808   51.0471 H       1  ZINC000859608860    0.0600
     32 H32        -9.9495    2.2919   52.7329 H       1  ZINC000859608860    0.0600
     33 H33        -9.0450    3.6839   52.0905 H       1  ZINC000859608860    0.0600
     34 H34        -8.1415    0.1064   51.4470 H       1  ZINC000859608860    0.0700
     35 H35        -7.0639   -0.0290   52.8572 H       1  ZINC000859608860    0.0700
     36 H36        -9.0533    0.0850   54.2707 H       1  ZINC000859608860    0.4000
     37 H37       -12.1481   -0.0497   53.6019 H       1  ZINC000859608860    0.1000
     38 H38       -11.8613   -1.7500   53.1605 H       1  ZINC000859608860    0.1000
     39 H39       -10.2286   -0.4039   57.5727 H       1  ZINC000859608860    0.2000
     40 H40       -11.9512   -0.9567   61.2716 H       1  ZINC000859608860    0.1400
     41 H41       -10.8915    0.0176   63.2678 H       1  ZINC000859608860    0.1500
     42 H42        -7.0437   -0.5614   61.5168 H       1  ZINC000859608860    0.1500
     43 H43        -8.0955   -1.5416   59.5193 H       1  ZINC000859608860    0.1500
     44 H44       -11.5613   -3.6978   59.9110 H       1  ZINC000859608860    0.2200
@<TRIPOS>BOND
     1     1     2    1
     2     1    25    1
     3     1    26    1
     4     1    27    1
     5     2     3    1
     6     2     4    1
     7     2     5    1
     8     3    28    1
     9     3    29    1
    10     3    30    1
    11     4    31    1
    12     4    32    1
    13     4    33    1
    14     5     6    1
    15     5    34    1
    16     5    35    1
    17     6     7   am
    18     6    36    1
    19     7     8    2
    20     7     9    1
    21     9    10    1
    22     9    37    1
    23     9    38    1
    24    10    11    1
    25    11    12    2
    26    11    13    1
    27    13    24    1
    28    13    14    2
    29    14    15    1
    30    14    39    1
    31    15    16    1
    32    15    23    1
    33    16    22   ar
    34    16    17   ar
    35    17    18   ar
    36    17    40    1
    37    18    19   ar
    38    18    41    1
    39    19    20    1
    40    19    21   ar
    41    21    22   ar
    42    21    42    1
    43    22    43    1
    44    23    24    2
    45    23    44    1
@<TRIPOS>SUBSTRUCTURE
     1 ZINC000859608860        1 TEMP              0 ****  ****    0 ROOT


##########                                Name:    ZINC001340305486
##########                DOCK_Rotatable_Bonds:                   8
##########                         Heavy_Atoms:                  27
##########                    Molecular_Weight:             378.431
##########                DOCK_Rotatable_Bonds:                   8
##########                       Formal_Charge:          0.00999955
##########                     HBond_Acceptors:                  10
##########                        HBond_Donors:                   2
##########                         Heavy_Atoms:                  27
##########                          Grid_Score:          -31.226385
##########                     Grid_vdw_energy:          -29.478729
##########                      Grid_es_energy:           -1.747656
##########           Internal_energy_repulsive:           12.122723

@<TRIPOS>MOLECULE
ZINC001340305486
 53 55 1 0 0
SMALL
USER_CHARGES


@<TRIPOS>ATOM
      1 C1         -8.6005    3.1338   59.1983 C.3     1  ZINC001340305486    0.0900
      2 N2         -8.0261    3.1912   57.8519 N.am    1  ZINC001340305486   -0.7300
      3 C3         -7.6345    2.0573   57.2373 C.2     1  ZINC001340305486    0.5200
      4 O4         -7.7564    0.9897   57.7997 O.2     1  ZINC001340305486   -0.5100
      5 C5         -7.0453    2.1161   55.8516 C.3     1  ZINC001340305486    0.0600
      6 H6         -6.6340    1.1414   55.5893 H       1  ZINC001340305486    0.0900
      7 C7         -5.9318    3.1689   55.8129 C.3     1  ZINC001340305486    0.0900
      8 N8         -5.5033    3.3401   54.4156 N.am    1  ZINC001340305486   -0.5800
      9 C9         -4.1998    3.2830   54.0777 C.2     1  ZINC001340305486    0.5100
     10 O10        -3.3597    3.0873   54.9314 O.2     1  ZINC001340305486   -0.5200
     11 C11        -3.7889    3.4604   52.6518 C.2     1  ZINC001340305486    0.5200
     12 O12        -3.9869    4.5180   52.0904 O.2     1  ZINC001340305486   -0.5000
     13 N13        -3.1987    2.4460   51.9893 N.am    1  ZINC001340305486   -0.6900
     14 C14        -2.7975    2.6194   50.5910 C.3     1  ZINC001340305486    0.1200
     15 C15        -1.3342    3.0624   50.5315 C.3     1  ZINC001340305486   -0.0400
     16 C16        -0.5834    2.1867   49.5616 C.2     1  ZINC001340305486    0.1700
     17 N17        -1.0756    1.6049   48.5000 N.2     1  ZINC001340305486   -0.2800
     18 N18        -0.1500    0.9399   47.9011 N.2     1  ZINC001340305486   -0.2900
     19 C19         0.9714    1.0724   48.5505 C.2     1  ZINC001340305486    0.1900
     20 C20         2.3099    0.4852   48.1852 C.3     1  ZINC001340305486   -0.0400
     21 C21         2.9377   -0.1445   49.4323 C.3     1  ZINC001340305486   -0.1200
     22 C22         3.7457    0.9084   50.1849 C.3     1  ZINC001340305486   -0.1300
     23 C23         3.0946    2.2837   50.0450 C.3     1  ZINC001340305486   -0.1400
     24 C24         1.6893    2.2545   50.6525 C.3     1  ZINC001340305486    0.1000
     25 N25         0.7265    1.8604   49.6234 N.pl3   1  ZINC001340305486   -0.4600
     26 C26        -6.5399    3.5760   53.3981 C.3     1  ZINC001340305486    0.0200
     27 C27        -7.6238    2.5033   53.5545 C.3     1  ZINC001340305486    0.0500
     28 O28        -8.0642    2.4724   54.9142 O.3     1  ZINC001340305486   -0.3500
     29 H29        -9.4998    2.5182   59.1837 H       1  ZINC001340305486    0.0600
     30 H30        -7.8740    2.6995   59.8851 H       1  ZINC001340305486    0.0600
     31 H31        -8.8551    4.1411   59.5279 H       1  ZINC001340305486    0.0800
     32 H32        -7.9275    4.0451   57.4026 H       1  ZINC001340305486    0.4000
     33 H33        -6.3083    4.1158   56.2000 H       1  ZINC001340305486    0.0900
     34 H34        -5.0887    2.8339   56.4170 H       1  ZINC001340305486    0.1100
     35 H35        -3.0394    1.6011   52.4384 H       1  ZINC001340305486    0.4200
     36 H36        -2.9129    1.6744   50.0600 H       1  ZINC001340305486    0.0900
     37 H37        -3.4259    3.3777   50.1240 H       1  ZINC001340305486    0.0800
     38 H38        -1.2818    4.0995   50.2003 H       1  ZINC001340305486    0.0900
     39 H39        -0.8873    2.9741   51.5218 H       1  ZINC001340305486    0.1100
     40 H40         2.1761   -0.2786   47.4192 H       1  ZINC001340305486    0.1000
     41 H41         2.9622    1.2723   47.8065 H       1  ZINC001340305486    0.0900
     42 H42         2.1503   -0.5293   50.0801 H       1  ZINC001340305486    0.0600
     43 H43         3.5946   -0.9619   49.1347 H       1  ZINC001340305486    0.0800
     44 H44         3.7937    0.6387   51.2399 H       1  ZINC001340305486    0.0700
     45 H45         4.7560    0.9457   49.7774 H       1  ZINC001340305486    0.0800
     46 H46         3.6995    3.0259   50.5661 H       1  ZINC001340305486    0.0900
     47 H47         3.0281    2.5477   48.9896 H       1  ZINC001340305486    0.0800
     48 H48         1.6629    1.5383   51.4737 H       1  ZINC001340305486    0.0900
     49 H49         1.4339    3.2462   51.0260 H       1  ZINC001340305486    0.1000
     50 H50        -6.9775    4.5638   53.5422 H       1  ZINC001340305486    0.0800
     51 H51        -6.0994    3.5105   52.4033 H       1  ZINC001340305486    0.1700
     52 H52        -8.4661    2.7393   52.9043 H       1  ZINC001340305486    0.1200
     53 H53        -7.2147    1.5301   53.2829 H       1  ZINC001340305486    0.0600
@<TRIPOS>BOND
     1     1     2    1
     2     1    29    1
     3     1    30    1
     4     1    31    1
     5     2     3   am
     6     2    32    1
     7     3     4    2
     8     3     5    1
     9     5     6    1
    10     5    28    1
    11     5     7    1
    12     7     8    1
    13     7    33    1
    14     7    34    1
    15     8     9   am
    16     8    26    1
    17     9    10    2
    18     9    11    1
    19    11    12    2
    20    11    13   am
    21    13    14    1
    22    13    35    1
    23    14    15    1
    24    14    36    1
    25    14    37    1
    26    15    16    1
    27    15    38    1
    28    15    39    1
    29    16    25    1
    30    16    17    2
    31    17    18    1
    32    18    19    2
    33    19    25    1
    34    19    20    1
    35    20    21    1
    36    20    40    1
    37    20    41    1
    38    21    22    1
    39    21    42    1
    40    21    43    1
    41    22    23    1
    42    22    44    1
    43    22    45    1
    44    23    24    1
    45    23    46    1
    46    23    47    1
    47    24    25    1
    48    24    48    1
    49    24    49    1
    50    26    27    1
    51    26    50    1
    52    26    51    1
    53    27    28    1
    54    27    52    1
    55    27    53    1
@<TRIPOS>SUBSTRUCTURE
     1 ZINC001340305486        1 TEMP              0 ****  ****    0 ROOT


##########                                Name:    ZINC001411334959
##########                DOCK_Rotatable_Bonds:                   9
##########                         Heavy_Atoms:                  24
##########                    Molecular_Weight:              339.37
##########                DOCK_Rotatable_Bonds:                   9
##########                       Formal_Charge:           0.0199995
##########                     HBond_Acceptors:                   9
##########                        HBond_Donors:                   3
##########                         Heavy_Atoms:                  24
##########                          Grid_Score:          -31.195255
##########                     Grid_vdw_energy:          -30.322180
##########                      Grid_es_energy:           -0.873075
##########           Internal_energy_repulsive:            5.459447

@<TRIPOS>MOLECULE
ZINC001411334959
 46 48 1 0 0
SMALL
USER_CHARGES


@<TRIPOS>ATOM
      1 O1         -2.8219    5.0626   54.4564 O.2     1  ZINC001411334959   -0.5400
      2 C2         -2.0775    4.1284   54.2466 C.2     1  ZINC001411334959    0.5200
      3 C3         -1.0011    3.7842   55.2435 C.3     1  ZINC001411334959   -0.1400
      4 C4         -1.5691    2.8342   56.2999 C.3     1  ZINC001411334959   -0.0100
      5 C5         -0.4807    2.4529   57.2700 C.2     1  ZINC001411334959    0.0100
      6 N6          0.8018    2.3312   57.0127 N.2     1  ZINC001411334959   -0.2800
      7 N7          1.4094    1.9925   58.0944 N.pl3   1  ZINC001411334959   -0.2500
      8 N8          0.5778    1.8827   59.0691 N.2     1  ZINC001411334959   -0.2800
      9 C9         -0.6279    2.1624   58.6282 C.2     1  ZINC001411334959   -0.0200
     10 N10        -2.2164    3.3946   53.1246 N.am    1  ZINC001411334959   -0.7200
     11 C11        -3.2628    3.7293   52.1555 C.3     1  ZINC001411334959    0.1200
     12 C12        -3.3507    2.7434   50.9786 C.3     1  ZINC001411334959   -0.1400
     13 C13        -4.8793    2.8679   51.0906 C.3     1  ZINC001411334959   -0.1200
     14 C14        -5.6182    1.5424   50.8960 C.3     1  ZINC001411334959    0.1300
     15 N15        -6.9163    1.6031   51.5724 N.am    1  ZINC001411334959   -0.7200
     16 C16        -7.6120    0.4710   51.7983 C.2     1  ZINC001411334959    0.5100
     17 O17        -7.1627   -0.5980   51.4429 O.2     1  ZINC001411334959   -0.5100
     18 C18        -8.9481    0.5336   52.4925 C.3     1  ZINC001411334959    0.0700
     19 F19        -8.8042    0.3090   53.8659 F       1  ZINC001411334959   -0.1800
     20 C20        -9.6492    1.8924   52.2206 C.3     1  ZINC001411334959   -0.1600
     21 C21       -11.1388    1.4860   52.3505 C.3     1  ZINC001411334959    0.0500
     22 O22       -11.2168    0.1641   51.7941 O.3     1  ZINC001411334959   -0.3700
     23 C23        -9.9377   -0.4757   51.8715 C.3     1  ZINC001411334959    0.0400
     24 C24        -4.6620    3.2412   52.5665 C.3     1  ZINC001411334959   -0.1400
     25 H25        -0.1705    3.3006   54.7291 H       1  ZINC001411334959    0.1000
     26 H26        -0.6482    4.6954   55.7265 H       1  ZINC001411334959    0.1000
     27 H27        -2.3776    3.3300   56.8372 H       1  ZINC001411334959    0.1000
     28 H28        -1.9527    1.9374   55.8133 H       1  ZINC001411334959    0.0900
     29 H29         2.3647    1.8405   58.1653 H       1  ZINC001411334959    0.4700
     30 H30        -1.5455    2.1611   59.1976 H       1  ZINC001411334959    0.2000
     31 H31        -1.6235    2.6451   52.9589 H       1  ZINC001411334959    0.4000
     32 H32        -3.2377    4.7752   51.8496 H       1  ZINC001411334959    0.1200
     33 H33        -2.9475    3.1390   50.0465 H       1  ZINC001411334959    0.0800
     34 H34        -2.9753    1.7475   51.2143 H       1  ZINC001411334959    0.0900
     35 H35        -5.2965    3.6770   50.4911 H       1  ZINC001411334959    0.1000
     36 H36        -5.7712    1.3645   49.8315 H       1  ZINC001411334959    0.0800
     37 H37        -5.0258    0.7308   51.3185 H       1  ZINC001411334959    0.0800
     38 H38        -7.2751    2.4579   51.8577 H       1  ZINC001411334959    0.4100
     39 H39        -9.3769    2.6325   52.9730 H       1  ZINC001411334959    0.1000
     40 H40        -9.4271    2.2551   51.2170 H       1  ZINC001411334959    0.1100
     41 H41       -11.4375    1.4735   53.3988 H       1  ZINC001411334959    0.0700
     42 H42       -11.7689    2.1725   51.7850 H       1  ZINC001411334959    0.1000
     43 H43        -9.6027   -0.7550   50.8725 H       1  ZINC001411334959    0.0900
     44 H44       -10.0053   -1.3626   52.5016 H       1  ZINC001411334959    0.0900
     45 H45        -4.6451    2.3815   53.2364 H       1  ZINC001411334959    0.0900
     46 H46        -5.3174    4.0387   52.9162 H       1  ZINC001411334959    0.0800
@<TRIPOS>BOND
     1     1     2    2
     2     2     3    1
     3     2    10   am
     4     3     4    1
     5     3    25    1
     6     3    26    1
     7     4     5    1
     8     4    27    1
     9     4    28    1
    10     5     9    1
    11     5     6    2
    12     6     7    1
    13     7     8    1
    14     7    29    1
    15     8     9    2
    16     9    30    1
    17    10    11    1
    18    10    31    1
    19    11    24    1
    20    11    12    1
    21    11    32    1
    22    12    13    1
    23    12    33    1
    24    12    34    1
    25    13    14    1
    26    13    24    1
    27    13    35    1
    28    14    15    1
    29    14    36    1
    30    14    37    1
    31    15    16   am
    32    15    38    1
    33    16    17    2
    34    16    18    1
    35    18    23    1
    36    18    19    1
    37    18    20    1
    38    20    21    1
    39    20    39    1
    40    20    40    1
    41    21    22    1
    42    21    41    1
    43    21    42    1
    44    22    23    1
    45    23    43    1
    46    23    44    1
    47    24    45    1
    48    24    46    1
@<TRIPOS>SUBSTRUCTURE
     1 ZINC001411334959        1 TEMP              0 ****  ****    0 ROOT


##########                                Name:    ZINC000590699876
##########                DOCK_Rotatable_Bonds:                   9
##########                         Heavy_Atoms:                  30
##########                    Molecular_Weight:              421.54
##########                DOCK_Rotatable_Bonds:                   9
##########                       Formal_Charge:          -0.0300004
##########                     HBond_Acceptors:                   9
##########                        HBond_Donors:                   1
##########                         Heavy_Atoms:                  30
##########                          Grid_Score:          -31.156994
##########                     Grid_vdw_energy:          -30.876953
##########                      Grid_es_energy:           -0.280041
##########           Internal_energy_repulsive:          102.608360

@<TRIPOS>MOLECULE
ZINC000590699876
 65 67 1 0 0
SMALL
USER_CHARGES


@<TRIPOS>ATOM
      1 C1         -9.0414   -0.7162   59.6449 C.3     1  ZINC000590699876   -0.1700
      2 C2         -8.9882    0.6629   59.0398 C.2     1  ZINC000590699876    0.5100
      3 O3         -9.0698    1.6411   59.7520 O.2     1  ZINC000590699876   -0.5500
      4 N4         -8.8499    0.8092   57.7072 N.am    1  ZINC000590699876   -0.7200
      5 C5         -8.7964    2.1500   57.1191 C.3     1  ZINC000590699876    0.1100
      6 C6         -7.9516    2.1180   55.8715 C.2     1  ZINC000590699876    0.5300
      7 O7         -6.7798    2.4259   55.9247 O.2     1  ZINC000590699876   -0.5200
      8 N8         -8.4985    1.7476   54.6968 N.am    1  ZINC000590699876   -0.6000
      9 C9         -9.9032    1.3506   54.4901 C.3     1  ZINC000590699876    0.1000
     10 C10       -10.1776    1.6291   52.9911 C.3     1  ZINC000590699876   -0.1300
     11 C11        -8.8228    1.2318   52.3475 C.3     1  ZINC000590699876   -0.1300
     12 C12        -7.7945    1.6785   53.4079 C.3     1  ZINC000590699876    0.1200
     13 H13        -6.9867    0.9494   53.4711 H       1  ZINC000590699876    0.1000
     14 C14        -7.2372    3.0304   53.0438 C.2     1  ZINC000590699876    0.5100
     15 O15        -7.6862    4.0310   53.5617 O.2     1  ZINC000590699876   -0.5200
     16 N16        -6.2398    3.1277   52.1426 N.am    1  ZINC000590699876   -0.6100
     17 C17        -5.6761    4.4366   51.7789 C.3     1  ZINC000590699876    0.1000
     18 C18        -4.1515    4.3650   51.9158 C.3     1  ZINC000590699876    0.0400
     19 N19        -3.6452    3.2310   51.1313 N.3     1  ZINC000590699876   -0.5200
     20 C20        -2.1766    3.2290   51.0960 C.3     1  ZINC000590699876    0.0400
     21 C21        -1.7076    2.8182   49.7241 C.2     1  ZINC000590699876    0.5200
     22 O22        -2.5138    2.6405   48.8356 O.2     1  ZINC000590699876   -0.5100
     23 N23        -0.3923    2.6483   49.4844 N.am    1  ZINC000590699876   -0.6100
     24 C24         0.5964    2.8600   50.5505 C.3     1  ZINC000590699876    0.1100
     25 C25         1.6509    3.8544   50.0546 C.3     1  ZINC000590699876   -0.1400
     26 C26         2.2448    3.3478   48.7382 C.3     1  ZINC000590699876   -0.1200
     27 C27         1.1406    3.2486   47.6833 C.3     1  ZINC000590699876   -0.1300
     28 C28         0.0798    2.2419   48.1537 C.3     1  ZINC000590699876    0.1400
     29 H29         0.5187    1.2455   48.2044 H       1  ZINC000590699876    0.0700
     30 C30        -1.0933    2.2363   47.1716 C.3     1  ZINC000590699876   -0.1400
     31 C31        -4.1611    1.9551   51.6449 C.3     1  ZINC000590699876    0.0400
     32 C32        -5.6820    1.9273   51.5014 C.3     1  ZINC000590699876    0.1200
     33 H33        -9.1550   -0.6347   60.7258 H       1  ZINC000590699876    0.1000
     34 H34        -9.8888   -1.2624   59.2306 H       1  ZINC000590699876    0.0900
     35 H35        -8.1186   -1.2494   59.4157 H       1  ZINC000590699876    0.0900
     36 H36        -8.7857    0.0269   57.1374 H       1  ZINC000590699876    0.4100
     37 H37        -9.8053    2.4765   56.8666 H       1  ZINC000590699876    0.1000
     38 H38        -8.3588    2.8442   57.8366 H       1  ZINC000590699876    0.1000
     39 H39       -10.0340    0.2908   54.7092 H       1  ZINC000590699876    0.0800
     40 H40       -10.5633    1.9524   55.1148 H       1  ZINC000590699876    0.0800
     41 H41       -10.9863    1.0004   52.6186 H       1  ZINC000590699876    0.0900
     42 H42       -10.3955    2.6838   52.8232 H       1  ZINC000590699876    0.0800
     43 H43        -8.7733    0.1549   52.1866 H       1  ZINC000590699876    0.1000
     44 H44        -8.6676    1.7700   51.4125 H       1  ZINC000590699876    0.0900
     45 H45        -5.9403    4.6756   50.7488 H       1  ZINC000590699876    0.0800
     46 H46        -6.0683    5.2028   52.4476 H       1  ZINC000590699876    0.0900
     47 H47        -3.7092    5.2899   51.5455 H       1  ZINC000590699876    0.0900
     48 H48        -3.8865    4.2291   52.9644 H       1  ZINC000590699876    0.0400
     49 H49        -1.8065    4.2290   51.3223 H       1  ZINC000590699876    0.1000
     50 H50        -1.7964    2.5249   51.8361 H       1  ZINC000590699876    0.0600
     51 H51         0.1008    3.2632   51.4336 H       1  ZINC000590699876    0.0800
     52 H52         1.0752    1.9127   50.7981 H       1  ZINC000590699876    0.0700
     53 H53         1.1864    4.8272   49.8936 H       1  ZINC000590699876    0.0700
     54 H54         2.4420    3.9471   50.7988 H       1  ZINC000590699876    0.0800
     55 H55         3.0130    4.0411   48.3957 H       1  ZINC000590699876    0.0700
     56 H56         2.6874    2.3641   48.8943 H       1  ZINC000590699876    0.0600
     57 H57         0.6809    4.2271   47.5446 H       1  ZINC000590699876    0.0700
     58 H58         1.5685    2.9100   46.7396 H       1  ZINC000590699876    0.0700
     59 H59        -0.7275    2.0105   46.1699 H       1  ZINC000590699876    0.0400
     60 H60        -1.8164    1.4787   47.4736 H       1  ZINC000590699876    0.0700
     61 H61        -1.5718    3.2157   47.1714 H       1  ZINC000590699876    0.0700
     62 H62        -3.7259    1.1321   51.0780 H       1  ZINC000590699876    0.1100
     63 H63        -3.8960    1.8527   52.6972 H       1  ZINC000590699876    0.0300
     64 H64        -6.0790    1.0344   51.9841 H       1  ZINC000590699876    0.0900
     65 H65        -5.9500    1.9258   50.4449 H       1  ZINC000590699876    0.0800
@<TRIPOS>BOND
     1     1     2    1
     2     1    33    1
     3     1    34    1
     4     1    35    1
     5     2     3    2
     6     2     4   am
     7     4     5    1
     8     4    36    1
     9     5     6    1
    10     5    37    1
    11     5    38    1
    12     6     7    2
    13     6     8   am
    14     8    12    1
    15     8     9    1
    16     9    10    1
    17     9    39    1
    18     9    40    1
    19    10    11    1
    20    10    41    1
    21    10    42    1
    22    11    12    1
    23    11    43    1
    24    11    44    1
    25    12    13    1
    26    12    14    1
    27    14    15    2
    28    14    16   am
    29    16    32    1
    30    16    17    1
    31    17    18    1
    32    17    45    1
    33    17    46    1
    34    18    19    1
    35    18    47    1
    36    18    48    1
    37    19    20    1
    38    19    31    1
    39    20    21    1
    40    20    49    1
    41    20    50    1
    42    21    22    2
    43    21    23   am
    44    23    28    1
    45    23    24    1
    46    24    25    1
    47    24    51    1
    48    24    52    1
    49    25    26    1
    50    25    53    1
    51    25    54    1
    52    26    27    1
    53    26    55    1
    54    26    56    1
    55    27    28    1
    56    27    57    1
    57    27    58    1
    58    28    29    1
    59    28    30    1
    60    30    59    1
    61    30    60    1
    62    30    61    1
    63    31    32    1
    64    31    62    1
    65    31    63    1
    66    32    64    1
    67    32    65    1
@<TRIPOS>SUBSTRUCTURE
     1 ZINC000590699876        1 TEMP              0 ****  ****    0 ROOT


##########                                Name:    ZINC000912668252
##########                DOCK_Rotatable_Bonds:                  10
##########                         Heavy_Atoms:                  30
##########                    Molecular_Weight:             411.433
##########                DOCK_Rotatable_Bonds:                  10
##########                       Formal_Charge:           0.0199993
##########                     HBond_Acceptors:                   8
##########                        HBond_Donors:                   2
##########                         Heavy_Atoms:                  30
##########                          Grid_Score:          -31.140329
##########                     Grid_vdw_energy:          -30.355690
##########                      Grid_es_energy:           -0.784639
##########           Internal_energy_repulsive:           15.638386

@<TRIPOS>MOLECULE
ZINC000912668252
 52 54 1 0 0
SMALL
USER_CHARGES


@<TRIPOS>ATOM
      1 C1        -11.2714   -1.3305   55.8939 C.3     1  ZINC000912668252   -0.1700
      2 C2        -11.2750   -1.2966   54.3643 C.3     1  ZINC000912668252    0.1100
      3 N3        -10.6660   -0.0469   53.9022 N.am    1  ZINC000912668252   -0.6100
      4 C4        -10.6431    1.1254   54.7804 C.3     1  ZINC000912668252    0.1000
      5 C5        -11.9978    1.8341   54.7203 C.3     1  ZINC000912668252   -0.1800
      6 C6        -10.1267    0.0242   52.6691 C.2     1  ZINC000912668252    0.5600
      7 O7        -10.1455   -0.9486   51.9405 O.2     1  ZINC000912668252   -0.5300
      8 C8         -9.5120    1.2855   52.2027 C.ar    1  ZINC000912668252   -0.1100
      9 C9        -10.2509    2.1792   51.4259 C.ar    1  ZINC000912668252   -0.1100
     10 C10        -9.6749    3.3562   50.9922 C.ar    1  ZINC000912668252   -0.1000
     11 C11        -8.3668    3.6543   51.3245 C.ar    1  ZINC000912668252   -0.1200
     12 C12        -7.6226    2.7708   52.0975 C.ar    1  ZINC000912668252    0.1400
     13 N13        -6.2985    3.0776   52.4315 N.am    1  ZINC000912668252   -0.6700
     14 C14        -5.2828    2.4889   51.7694 C.2     1  ZINC000912668252    0.5200
     15 O15        -5.5162    1.6934   50.8842 O.2     1  ZINC000912668252   -0.4900
     16 C16        -3.8571    2.8193   52.1291 C.3     1  ZINC000912668252    0.0500
     17 O17        -2.9715    2.3480   51.0793 O.3     1  ZINC000912668252   -0.3300
     18 C18        -1.6974    2.7884   51.1097 C.2     1  ZINC000912668252    0.5400
     19 O19        -1.3228    3.5030   52.0191 O.2     1  ZINC000912668252   -0.4800
     20 C20        -0.7620    2.4047   50.0440 C.2     1  ZINC000912668252    0.0400
     21 C21         0.3235    1.6011   50.1996 C.2     1  ZINC000912668252   -0.0900
     22 C22         0.9552    1.4806   48.9387 C.ar    1  ZINC000912668252   -0.1000
     23 C23         2.0933    0.7945   48.4949 C.ar    1  ZINC000912668252   -0.0900
     24 C24         2.4640    0.8715   47.1819 C.ar    1  ZINC000912668252    0.0700
     25 F25         3.5618    0.2092   46.7561 F       1  ZINC000912668252   -0.1400
     26 C26         1.7207    1.6256   46.2801 C.ar    1  ZINC000912668252   -0.1100
     27 C27         0.5988    2.3086   46.6939 C.ar    1  ZINC000912668252   -0.1000
     28 C28         0.2016    2.2452   48.0264 C.ar    1  ZINC000912668252    0.1100
     29 N29        -0.8484    2.7981   48.7223 N.pl3   1  ZINC000912668252   -0.5600
     30 C30        -8.1935    1.5888   52.5424 C.ar    1  ZINC000912668252   -0.0700
     31 H31       -11.7245   -2.2604   56.2378 H       1  ZINC000912668252    0.0700
     32 H32       -10.2451   -1.2707   56.2563 H       1  ZINC000912668252    0.0600
     33 H33       -11.8420   -0.4847   56.2775 H       1  ZINC000912668252    0.0600
     34 H34       -10.7044   -2.1425   53.9808 H       1  ZINC000912668252    0.0800
     35 H35       -12.3013   -1.3565   54.0020 H       1  ZINC000912668252    0.0900
     36 H36       -10.4438    0.8087   55.8041 H       1  ZINC000912668252    0.0900
     37 H37        -9.8604    1.8096   54.4528 H       1  ZINC000912668252    0.0800
     38 H38       -12.0354    2.4716   53.8369 H       1  ZINC000912668252    0.0600
     39 H39       -12.7942    1.0918   54.6670 H       1  ZINC000912668252    0.0700
     40 H40       -12.1288    2.4440   55.6142 H       1  ZINC000912668252    0.0700
     41 H41       -11.2732    1.9498   51.1640 H       1  ZINC000912668252    0.1400
     42 H42       -10.2481    4.0463   50.3910 H       1  ZINC000912668252    0.1400
     43 H43        -7.9213    4.5765   50.9819 H       1  ZINC000912668252    0.1300
     44 H44        -6.1118    3.7139   53.1394 H       1  ZINC000912668252    0.4200
     45 H45        -3.7504    3.8986   52.2371 H       1  ZINC000912668252    0.1100
     46 H46        -3.5974    2.3326   53.0692 H       1  ZINC000912668252    0.1100
     47 H47         0.6463    1.1380   51.1204 H       1  ZINC000912668252    0.1700
     48 H48         2.6761    0.2067   49.1885 H       1  ZINC000912668252    0.1400
     49 H49         2.0264    1.6764   45.2456 H       1  ZINC000912668252    0.1400
     50 H50         0.0285    2.8920   45.9863 H       1  ZINC000912668252    0.1400
     51 H51        -1.5352    3.3712   48.3472 H       1  ZINC000912668252    0.4300
     52 H52        -7.6168    0.9011   53.1432 H       1  ZINC000912668252    0.1400
@<TRIPOS>BOND
     1     1     2    1
     2     1    31    1
     3     1    32    1
     4     1    33    1
     5     2     3    1
     6     2    34    1
     7     2    35    1
     8     3     4    1
     9     3     6   am
    10     4     5    1
    11     4    36    1
    12     4    37    1
    13     5    38    1
    14     5    39    1
    15     5    40    1
    16     6     7    2
    17     6     8    1
    18     8    30   ar
    19     8     9   ar
    20     9    10   ar
    21     9    41    1
    22    10    11   ar
    23    10    42    1
    24    11    12   ar
    25    11    43    1
    26    12    13    1
    27    12    30   ar
    28    13    14   am
    29    13    44    1
    30    14    15    2
    31    14    16    1
    32    16    17    1
    33    16    45    1
    34    16    46    1
    35    17    18    1
    36    18    19    2
    37    18    20    1
    38    20    29    1
    39    20    21    2
    40    21    22    1
    41    21    47    1
    42    22    28   ar
    43    22    23   ar
    44    23    24   ar
    45    23    48    1
    46    24    25    1
    47    24    26   ar
    48    26    27   ar
    49    26    49    1
    50    27    28   ar
    51    27    50    1
    52    28    29    1
    53    29    51    1
    54    30    52    1
@<TRIPOS>SUBSTRUCTURE
     1 ZINC000912668252        1 TEMP              0 ****  ****    0 ROOT


##########                                Name:    ZINC000550217006
##########                DOCK_Rotatable_Bonds:                   7
##########                         Heavy_Atoms:                  27
##########                    Molecular_Weight:             367.404
##########                DOCK_Rotatable_Bonds:                   7
##########                       Formal_Charge:          0.00999951
##########                     HBond_Acceptors:                   7
##########                        HBond_Donors:                   3
##########                         Heavy_Atoms:                  27
##########                          Grid_Score:          -31.137436
##########                     Grid_vdw_energy:          -29.791660
##########                      Grid_es_energy:           -1.345775
##########           Internal_energy_repulsive:           10.180331

@<TRIPOS>MOLECULE
ZINC000550217006
 48 50 1 0 0
SMALL
USER_CHARGES


@<TRIPOS>ATOM
      1 C1        -11.7132    5.1255   51.4874 C.3     1  ZINC000550217006   -0.1500
      2 C2        -10.3066    4.5480   51.3168 C.3     1  ZINC000550217006    0.0500
      3 O3        -10.2811    3.2046   51.8032 O.3     1  ZINC000550217006   -0.3100
      4 C4         -9.0973    2.5419   51.7232 C.ar    1  ZINC000550217006    0.1400
      5 C5         -7.9711    3.1880   51.2352 C.ar    1  ZINC000550217006   -0.2100
      6 C6         -6.7686    2.5122   51.1554 C.ar    1  ZINC000550217006   -0.0800
      7 C7         -6.6875    1.1931   51.5609 C.ar    1  ZINC000550217006   -0.1600
      8 C8         -7.8090    0.5466   52.0473 C.ar    1  ZINC000550217006   -0.0700
      9 C9         -9.0119    1.2196   52.1349 C.ar    1  ZINC000550217006   -0.1200
     10 C10       -10.2336    0.5146   52.6655 C.3     1  ZINC000550217006   -0.0800
     11 C11       -10.0467    0.2222   54.1556 C.3     1  ZINC000550217006    0.1300
     12 N12       -11.1783   -0.5699   54.6436 N.am    1  ZINC000550217006   -0.7200
     13 C13       -11.2074   -0.9852   55.9254 C.2     1  ZINC000550217006    0.5600
     14 O14       -10.2941   -0.7038   56.6762 O.2     1  ZINC000550217006   -0.5300
     15 C15       -12.3519   -1.7842   56.4191 C.ar    1  ZINC000550217006   -0.0800
     16 C16       -12.6785   -1.7747   57.7772 C.ar    1  ZINC000550217006   -0.1000
     17 C17       -13.7401   -2.5183   58.2312 C.ar    1  ZINC000550217006   -0.0500
     18 C18       -14.5068   -3.2918   57.3439 C.ar    1  ZINC000550217006   -0.1300
     19 C19       -14.1860   -3.3013   55.9869 C.ar    1  ZINC000550217006    0.1800
     20 C20       -13.1072   -2.5409   55.5319 C.ar    1  ZINC000550217006   -0.0900
     21 N21       -14.8927   -4.0244   55.0412 N.am    1  ZINC000550217006   -0.6600
     22 C22       -15.3597   -5.2591   55.1998 C.2     1  ZINC000550217006    0.5100
     23 O23       -15.9253   -5.7979   54.2722 O.2     1  ZINC000550217006   -0.5100
     24 C24       -15.2070   -6.0074   56.4957 C.3     1  ZINC000550217006    0.0900
     25 N25       -15.9492   -5.3007   57.5396 N.am    1  ZINC000550217006   -0.7100
     26 C26       -15.6233   -4.0632   57.9090 C.2     1  ZINC000550217006    0.5600
     27 O27       -16.2955   -3.5352   58.7733 O.2     1  ZINC000550217006   -0.5200
     28 H28       -11.9843    5.1161   52.5431 H       1  ZINC000550217006    0.0700
     29 H29       -11.7327    6.1502   51.1163 H       1  ZINC000550217006    0.0800
     30 H30       -12.4247    4.5216   50.9242 H       1  ZINC000550217006    0.0700
     31 H31       -10.0356    4.5574   50.2610 H       1  ZINC000550217006    0.0600
     32 H32        -9.5952    5.1520   51.8799 H       1  ZINC000550217006    0.0600
     33 H33        -8.0341    4.2184   50.9177 H       1  ZINC000550217006    0.1300
     34 H34        -5.8914    3.0149   50.7755 H       1  ZINC000550217006    0.1300
     35 H35        -5.7467    0.6664   51.4974 H       1  ZINC000550217006    0.1300
     36 H36        -7.7431   -0.4841   52.3631 H       1  ZINC000550217006    0.1300
     37 H37       -11.1085    1.1499   52.5269 H       1  ZINC000550217006    0.0800
     38 H38       -10.3756   -0.4220   52.1264 H       1  ZINC000550217006    0.0800
     39 H39        -9.1221   -0.3358   54.3032 H       1  ZINC000550217006    0.0700
     40 H40        -9.9961    1.1613   54.7067 H       1  ZINC000550217006    0.0700
     41 H41       -11.9068   -0.7956   54.0440 H       1  ZINC000550217006    0.4000
     42 H42       -12.0969   -1.1837   58.4692 H       1  ZINC000550217006    0.1400
     43 H43       -13.9882   -2.5085   59.2822 H       1  ZINC000550217006    0.1500
     44 H44       -12.8528   -2.5472   54.4823 H       1  ZINC000550217006    0.1500
     45 H45       -15.0623   -3.5927   54.1893 H       1  ZINC000550217006    0.4200
     46 H46       -15.6047   -7.0161   56.3840 H       1  ZINC000550217006    0.1300
     47 H47       -14.1525   -6.0565   56.7669 H       1  ZINC000550217006    0.1000
     48 H48       -16.6959   -5.7432   57.9725 H       1  ZINC000550217006    0.4200
@<TRIPOS>BOND
     1     1     2    1
     2     1    28    1
     3     1    29    1
     4     1    30    1
     5     2     3    1
     6     2    31    1
     7     2    32    1
     8     3     4    1
     9     4     9   ar
    10     4     5   ar
    11     5     6   ar
    12     5    33    1
    13     6     7   ar
    14     6    34    1
    15     7     8   ar
    16     7    35    1
    17     8     9   ar
    18     8    36    1
    19     9    10    1
    20    10    11    1
    21    10    37    1
    22    10    38    1
    23    11    12    1
    24    11    39    1
    25    11    40    1
    26    12    13   am
    27    12    41    1
    28    13    14    2
    29    13    15    1
    30    15    20   ar
    31    15    16   ar
    32    16    17   ar
    33    16    42    1
    34    17    18   ar
    35    17    43    1
    36    18    26    1
    37    18    19   ar
    38    19    20   ar
    39    19    21    1
    40    20    44    1
    41    21    22   am
    42    21    45    1
    43    22    23    2
    44    22    24    1
    45    24    25    1
    46    24    46    1
    47    24    47    1
    48    25    26   am
    49    25    48    1
    50    26    27    2
@<TRIPOS>SUBSTRUCTURE
     1 ZINC000550217006        1 TEMP              0 ****  ****    0 ROOT


##########                                Name:    ZINC000762187039
##########                DOCK_Rotatable_Bonds:                   9
##########                         Heavy_Atoms:                  25
##########                    Molecular_Weight:             354.473
##########                DOCK_Rotatable_Bonds:                   9
##########                       Formal_Charge:        -1.78814e-07
##########                     HBond_Acceptors:                   5
##########                        HBond_Donors:                   1
##########                         Heavy_Atoms:                  25
##########                          Grid_Score:          -31.122154
##########                     Grid_vdw_energy:          -31.025434
##########                      Grid_es_energy:           -0.096720
##########           Internal_energy_repulsive:            4.759453

@<TRIPOS>MOLECULE
ZINC000762187039
 47 49 1 0 0
SMALL
USER_CHARGES


@<TRIPOS>ATOM
      1 C1         -5.8254    4.8520   52.1524 C.3     1  ZINC000762187039   -0.0800
      2 C2         -5.9417    3.3968   51.7778 C.2     1  ZINC000762187039    0.0500
      3 N3         -6.8946    2.6117   52.1527 N.2     1  ZINC000762187039   -0.4700
      4 C4         -6.8445    1.3634   51.7334 C.2     1  ZINC000762187039    0.0700
      5 C5         -7.8901    0.3398   52.0939 C.3     1  ZINC000762187039   -0.0300
      6 C6         -9.2375    1.0361   52.2950 C.3     1  ZINC000762187039   -0.1300
      7 C7        -10.2747    0.0178   52.6931 C.2     1  ZINC000762187039    0.5200
      8 O8        -10.8927   -0.5835   51.8403 O.2     1  ZINC000762187039   -0.5400
      9 N9        -10.5155   -0.2244   53.9969 N.am    1  ZINC000762187039   -0.7300
     10 C10       -11.5249   -1.2131   54.3840 C.3     1  ZINC000762187039    0.1200
     11 C11       -11.2454   -1.6964   55.8085 C.3     1  ZINC000762187039   -0.1300
     12 C12       -12.5087   -2.3375   56.3865 C.3     1  ZINC000762187039    0.0600
     13 O13       -12.1685   -3.0974   57.5480 O.3     1  ZINC000762187039   -0.3100
     14 C14       -11.7480   -2.4032   58.6379 C.ar    1  ZINC000762187039    0.1300
     15 C15       -12.6882   -1.7817   59.4651 C.ar    1  ZINC000762187039   -0.1900
     16 C16       -12.2982   -1.0799   60.5630 C.ar    1  ZINC000762187039   -0.0600
     17 C17       -10.9315   -0.9757   60.8744 C.ar    1  ZINC000762187039   -0.0800
     18 C18       -10.4937   -0.2589   62.0011 C.ar    1  ZINC000762187039   -0.0900
     19 C19        -9.1626   -0.1788   62.2731 C.ar    1  ZINC000762187039   -0.1300
     20 C20        -8.2232   -0.7978   61.4502 C.ar    1  ZINC000762187039   -0.1000
     21 C21        -8.6097   -1.5003   60.3507 C.ar    1  ZINC000762187039   -0.1200
     22 C22        -9.9762   -1.6054   60.0373 C.ar    1  ZINC000762187039   -0.0100
     23 C23       -10.4123   -2.3264   58.9141 C.ar    1  ZINC000762187039   -0.1500
     24 C24        -5.7908    1.0797   50.9618 C.2     1  ZINC000762187039   -0.2600
     25 S25        -4.8342    2.5493   50.7889 S.3     1  ZINC000762187039    0.1200
     26 H26        -4.9299    5.2741   51.6963 H       1  ZINC000762187039    0.0800
     27 H27        -6.7033    5.3904   51.7952 H       1  ZINC000762187039    0.0900
     28 H28        -5.7589    4.9439   53.2365 H       1  ZINC000762187039    0.0900
     29 H29        -7.9753   -0.3914   51.2900 H       1  ZINC000762187039    0.0900
     30 H30        -7.6012   -0.1656   53.0155 H       1  ZINC000762187039    0.0900
     31 H31        -9.1451    1.7866   53.0799 H       1  ZINC000762187039    0.0900
     32 H32        -9.5397    1.5180   51.3651 H       1  ZINC000762187039    0.1000
     33 H33       -10.0202    0.2557   54.6789 H       1  ZINC000762187039    0.4000
     34 H34       -12.5142   -0.7575   54.3424 H       1  ZINC000762187039    0.0700
     35 H35       -11.4857   -2.0598   53.6988 H       1  ZINC000762187039    0.0700
     36 H36       -10.4403   -2.4310   55.7915 H       1  ZINC000762187039    0.0800
     37 H37       -10.9515   -0.8495   56.4285 H       1  ZINC000762187039    0.0800
     38 H38       -13.2202   -1.5578   56.6580 H       1  ZINC000762187039    0.0700
     39 H39       -12.9565   -2.9945   55.6409 H       1  ZINC000762187039    0.0700
     40 H40       -13.7392   -1.8597   59.2288 H       1  ZINC000762187039    0.1300
     41 H41       -13.0356   -0.6044   61.1927 H       1  ZINC000762187039    0.1300
     42 H42       -11.2099    0.2261   62.6478 H       1  ZINC000762187039    0.1300
     43 H43        -8.8291    0.3730   63.1395 H       1  ZINC000762187039    0.1200
     44 H44        -7.1728   -0.7183   61.6885 H       1  ZINC000762187039    0.1200
     45 H45        -7.8707   -1.9747   59.7221 H       1  ZINC000762187039    0.1300
     46 H46        -9.6957   -2.8143   58.2701 H       1  ZINC000762187039    0.1300
     47 H47        -5.5672    0.1203   50.5195 H       1  ZINC000762187039    0.1800
@<TRIPOS>BOND
     1     1     2    1
     2     1    26    1
     3     1    27    1
     4     1    28    1
     5     2    25    1
     6     2     3    2
     7     3     4    1
     8     4     5    1
     9     4    24    2
    10     5     6    1
    11     5    29    1
    12     5    30    1
    13     6     7    1
    14     6    31    1
    15     6    32    1
    16     7     8    2
    17     7     9   am
    18     9    10    1
    19     9    33    1
    20    10    11    1
    21    10    34    1
    22    10    35    1
    23    11    12    1
    24    11    36    1
    25    11    37    1
    26    12    13    1
    27    12    38    1
    28    12    39    1
    29    13    14    1
    30    14    23   ar
    31    14    15   ar
    32    15    16   ar
    33    15    40    1
    34    16    17   ar
    35    16    41    1
    36    17    22   ar
    37    17    18   ar
    38    18    19   ar
    39    18    42    1
    40    19    20   ar
    41    19    43    1
    42    20    21   ar
    43    20    44    1
    44    21    22   ar
    45    21    45    1
    46    22    23   ar
    47    23    46    1
    48    24    25    1
    49    24    47    1
@<TRIPOS>SUBSTRUCTURE
     1 ZINC000762187039        1 TEMP              0 ****  ****    0 ROOT


##########                                Name:    ZINC000499369364
##########                DOCK_Rotatable_Bonds:                   9
##########                         Heavy_Atoms:                  25
##########                    Molecular_Weight:             384.527
##########                DOCK_Rotatable_Bonds:                   9
##########                       Formal_Charge:        -5.88596e-07
##########                     HBond_Acceptors:                  10
##########                        HBond_Donors:                   1
##########                         Heavy_Atoms:                  25
##########                          Grid_Score:          -31.110975
##########                     Grid_vdw_energy:          -28.563971
##########                      Grid_es_energy:           -2.547004
##########           Internal_energy_repulsive:           20.890823

@<TRIPOS>MOLECULE
ZINC000499369364
 49 51 1 0 0
SMALL
USER_CHARGES


@<TRIPOS>ATOM
      1 C1         -9.3818    0.0943   53.0961 C.3     1  ZINC000499369364   -0.1500
      2 C2         -7.9571    0.6474   53.1700 C.3     1  ZINC000499369364   -0.1000
      3 C3         -7.3982    0.8076   51.7548 C.3     1  ZINC000499369364   -0.1500
      4 C4         -7.9741    2.0085   53.8687 C.3     1  ZINC000499369364    0.1500
      5 H5         -8.6293    2.6884   53.3240 H       1  ZINC000499369364    0.0900
      6 C6         -8.4891    1.8408   55.2995 C.3     1  ZINC000499369364   -0.1700
      7 N7         -6.6165    2.5584   53.8996 N.am    1  ZINC000499369364   -0.7200
      8 C8         -6.4300    3.8933   53.8959 C.2     1  ZINC000499369364    0.5100
      9 O9         -7.3859    4.6391   53.8655 O.2     1  ZINC000499369364   -0.5100
     10 C10        -5.0337    4.4591   53.9296 C.3     1  ZINC000499369364    0.1200
     11 H11        -5.0634    5.4849   53.5623 H       1  ZINC000499369364    0.1200
     12 C12        -4.5369    4.4695   55.3932 C.3     1  ZINC000499369364   -0.0800
     13 S13        -3.5340    2.9252   55.4457 S.3     1  ZINC000499369364   -0.2400
     14 C14        -3.0117    3.0547   53.6854 C.3     1  ZINC000499369364    0.1400
     15 N15        -4.1879    3.6703   53.0467 N.am    1  ZINC000499369364   -0.6000
     16 C16        -4.4616    3.5172   51.7360 C.2     1  ZINC000499369364    0.5600
     17 O17        -5.4422    4.0449   51.2554 O.2     1  ZINC000499369364   -0.5000
     18 C18        -3.5491    2.6901   50.8674 C.3     1  ZINC000499369364   -0.1500
     19 S19        -1.9369    3.5030   50.7402 S.3     1  ZINC000499369364    0.1300
     20 C20        -1.3291    2.7485   49.2685 C.2     1  ZINC000499369364    0.2000
     21 N21        -2.0526    2.2483   48.2904 N.2     1  ZINC000499369364   -0.3400
     22 N22        -1.2954    1.7748   47.3675 N.2     1  ZINC000499369364   -0.0300
     23 N23        -0.0550    1.9336   47.6803 N.2     1  ZINC000499369364   -0.0800
     24 N24        -0.0294    2.5796   48.9287 N.pl3   1  ZINC000499369364   -0.3300
     25 C25         1.1506    2.9767   49.7007 C.3     1  ZINC000499369364    0.0500
     26 C26         1.6212    2.0317   50.8081 C.3     1  ZINC000499369364   -0.1500
     27 C27         2.4271    2.1543   49.5133 C.3     1  ZINC000499369364   -0.1600
     28 H28        -9.3697   -0.8753   52.5983 H       1  ZINC000499369364    0.0600
     29 H29        -9.7799   -0.0197   54.1043 H       1  ZINC000499369364    0.0600
     30 H30       -10.0105    0.7840   52.5330 H       1  ZINC000499369364    0.0600
     31 H31        -7.3283   -0.0423   53.7330 H       1  ZINC000499369364    0.0800
     32 H32        -7.3861   -0.1620   51.2570 H       1  ZINC000499369364    0.0600
     33 H33        -8.0269    1.4973   51.1917 H       1  ZINC000499369364    0.0600
     34 H34        -6.3833    1.2017   51.8074 H       1  ZINC000499369364    0.0500
     35 H35        -7.8340    1.1609   55.8442 H       1  ZINC000499369364    0.0600
     36 H36        -8.5012    2.8104   55.7974 H       1  ZINC000499369364    0.0600
     37 H37        -9.4991    1.4316   55.2767 H       1  ZINC000499369364    0.0700
     38 H38        -5.8520    1.9620   53.9227 H       1  ZINC000499369364    0.4000
     39 H39        -3.9183    5.3450   55.5905 H       1  ZINC000499369364    0.1200
     40 H40        -5.3728    4.4174   56.0908 H       1  ZINC000499369364    0.1300
     41 H41        -2.1366    3.6971   53.5881 H       1  ZINC000499369364    0.1100
     42 H42        -2.8166    2.0676   53.2663 H       1  ZINC000499369364    0.1200
     43 H43        -3.4238    1.7018   51.3097 H       1  ZINC000499369364    0.1300
     44 H44        -3.9853    2.5907   49.8734 H       1  ZINC000499369364    0.1300
     45 H45         1.2623    4.0475   49.8713 H       1  ZINC000499369364    0.1600
     46 H46         2.0426    2.4806   51.7076 H       1  ZINC000499369364    0.1200
     47 H47         1.0529    1.1145   50.9622 H       1  ZINC000499369364    0.1200
     48 H48         2.3889    1.3177   48.8156 H       1  ZINC000499369364    0.1100
     49 H49         3.3786    2.6839   49.5609 H       1  ZINC000499369364    0.1200
@<TRIPOS>BOND
     1     1     2    1
     2     1    28    1
     3     1    29    1
     4     1    30    1
     5     2     3    1
     6     2     4    1
     7     2    31    1
     8     3    32    1
     9     3    33    1
    10     3    34    1
    11     4     5    1
    12     4     6    1
    13     4     7    1
    14     6    35    1
    15     6    36    1
    16     6    37    1
    17     7     8   am
    18     7    38    1
    19     8     9    2
    20     8    10    1
    21    10    11    1
    22    10    15    1
    23    10    12    1
    24    12    13    1
    25    12    39    1
    26    12    40    1
    27    13    14    1
    28    14    15    1
    29    14    41    1
    30    14    42    1
    31    15    16   am
    32    16    17    2
    33    16    18    1
    34    18    19    1
    35    18    43    1
    36    18    44    1
    37    19    20    1
    38    20    24    1
    39    20    21    2
    40    21    22    1
    41    22    23    2
    42    23    24    1
    43    24    25    1
    44    25    27    1
    45    25    26    1
    46    25    45    1
    47    26    27    1
    48    26    46    1
    49    26    47    1
    50    27    48    1
    51    27    49    1
@<TRIPOS>SUBSTRUCTURE
     1 ZINC000499369364        1 TEMP              0 ****  ****    0 ROOT


##########                                Name:    ZINC000435005159
##########                DOCK_Rotatable_Bonds:                  12
##########                         Heavy_Atoms:                  30
##########                    Molecular_Weight:             401.508
##########                DOCK_Rotatable_Bonds:                  12
##########                       Formal_Charge:          -0.0399985
##########                     HBond_Acceptors:                   5
##########                        HBond_Donors:                   2
##########                         Heavy_Atoms:                  30
##########                          Grid_Score:          -31.074018
##########                     Grid_vdw_energy:          -32.531685
##########                      Grid_es_energy:            1.457666
##########           Internal_energy_repulsive:           10.112868

@<TRIPOS>MOLECULE
ZINC000435005159
 57 59 1 0 0
SMALL
USER_CHARGES


@<TRIPOS>ATOM
      1 O1        -12.0779    2.5245   50.9122 O.2     1  ZINC000435005159   -0.5300
      2 C2        -12.3632    1.3633   50.7096 C.2     1  ZINC000435005159    0.5200
      3 C3        -13.2348    0.9953   49.5366 C.3     1  ZINC000435005159   -0.1400
      4 C4        -14.7042    1.0316   49.9617 C.3     1  ZINC000435005159   -0.1200
      5 C5        -15.5896    0.6686   48.7679 C.3     1  ZINC000435005159    0.1200
      6 N6        -15.7562   -0.7857   48.7079 N.am    1  ZINC000435005159   -0.7200
      7 C7        -15.4298   -1.4556   47.5849 C.2     1  ZINC000435005159    0.5600
      8 O8        -14.9984   -0.8530   46.6214 O.2     1  ZINC000435005159   -0.5300
      9 C9        -15.5963   -2.9234   47.5250 C.ar    1  ZINC000435005159   -0.1900
     10 C10       -14.6938   -3.7132   46.8031 C.ar    1  ZINC000435005159   -0.0200
     11 C11       -14.8940   -5.0824   46.7789 C.ar    1  ZINC000435005159   -0.1800
     12 C12       -15.9690   -5.6216   47.4620 C.ar    1  ZINC000435005159    0.1200
     13 N13       -16.8042   -4.8521   48.1341 N.ar    1  ZINC000435005159   -0.4900
     14 C14       -16.6527   -3.5455   48.1918 C.ar    1  ZINC000435005159    0.1400
     15 N15       -11.8963    0.4014   51.5301 N.am    1  ZINC000435005159   -0.7300
     16 C16       -11.0491    0.7592   52.6704 C.3     1  ZINC000435005159    0.1900
     17 H17       -11.3929    1.7014   53.0972 H       1  ZINC000435005159    0.1000
     18 C18       -11.1301   -0.3407   53.7309 C.3     1  ZINC000435005159   -0.1200
     19 C19       -12.3763   -0.1276   54.5924 C.3     1  ZINC000435005159   -0.0800
     20 C20       -12.2451   -0.9166   55.8697 C.ar    1  ZINC000435005159   -0.0800
     21 C21       -11.5181   -0.4034   56.9276 C.ar    1  ZINC000435005159   -0.1200
     22 C22       -11.3979   -1.1271   58.0992 C.ar    1  ZINC000435005159   -0.1200
     23 C23       -12.0048   -2.3638   58.2131 C.ar    1  ZINC000435005159   -0.1200
     24 C24       -12.7325   -2.8766   57.1555 C.ar    1  ZINC000435005159   -0.1200
     25 C25       -12.8564   -2.1509   55.9854 C.ar    1  ZINC000435005159   -0.1200
     26 C26        -9.6221    0.9079   52.2090 C.ar    1  ZINC000435005159   -0.1000
     27 C27        -8.8697   -0.2144   51.9172 C.ar    1  ZINC000435005159   -0.1100
     28 C28        -7.5609   -0.0781   51.4939 C.ar    1  ZINC000435005159   -0.1200
     29 C29        -7.0046    1.1806   51.3619 C.ar    1  ZINC000435005159   -0.1200
     30 C30        -7.7574    2.3028   51.6528 C.ar    1  ZINC000435005159   -0.1200
     31 C31        -9.0676    2.1667   52.0719 C.ar    1  ZINC000435005159   -0.1000
     32 H32       -13.0733    1.7067   48.7265 H       1  ZINC000435005159    0.1000
     33 H33       -12.9801   -0.0080   49.1952 H       1  ZINC000435005159    0.1000
     34 H34       -14.8673    0.3148   50.7665 H       1  ZINC000435005159    0.0800
     35 H35       -14.9569    2.0329   50.3104 H       1  ZINC000435005159    0.0800
     36 H36       -16.5649    1.1417   48.8816 H       1  ZINC000435005159    0.0700
     37 H37       -15.1208    1.0187   47.8482 H       1  ZINC000435005159    0.0700
     38 H38       -16.1016   -1.2664   49.4764 H       1  ZINC000435005159    0.4000
     39 H39       -13.8627   -3.2656   46.2782 H       1  ZINC000435005159    0.1500
     40 H40       -14.2182   -5.7231   46.2320 H       1  ZINC000435005159    0.1500
     41 H41       -16.1276   -6.6897   47.4449 H       1  ZINC000435005159    0.1600
     42 H42       -17.3572   -2.9491   48.7525 H       1  ZINC000435005159    0.1600
     43 H43       -12.1214   -0.5277   51.3657 H       1  ZINC000435005159    0.4000
     44 H44       -11.1883   -1.3131   53.2420 H       1  ZINC000435005159    0.0700
     45 H45       -10.2418   -0.3036   54.3615 H       1  ZINC000435005159    0.0800
     46 H46       -12.4781    0.9316   54.8286 H       1  ZINC000435005159    0.0700
     47 H47       -13.2576   -0.4644   54.0463 H       1  ZINC000435005159    0.0700
     48 H48       -11.0439    0.5629   56.8386 H       1  ZINC000435005159    0.1200
     49 H49       -10.8293   -0.7265   58.9254 H       1  ZINC000435005159    0.1200
     50 H50       -11.9103   -2.9295   59.1282 H       1  ZINC000435005159    0.1200
     51 H51       -13.2065   -3.8430   57.2443 H       1  ZINC000435005159    0.1200
     52 H52       -13.4250   -2.5516   55.1592 H       1  ZINC000435005159    0.1200
     53 H53        -9.3042   -1.1978   52.0204 H       1  ZINC000435005159    0.1200
     54 H54        -6.9727   -0.9549   51.2668 H       1  ZINC000435005159    0.1200
     55 H55        -5.9819    1.2870   51.0319 H       1  ZINC000435005159    0.1200
     56 H56        -7.3228    3.2861   51.5499 H       1  ZINC000435005159    0.1200
     57 H57        -9.6558    3.0435   52.2991 H       1  ZINC000435005159    0.1200
@<TRIPOS>BOND
     1     1     2    2
     2     2     3    1
     3     2    15   am
     4     3     4    1
     5     3    32    1
     6     3    33    1
     7     4     5    1
     8     4    34    1
     9     4    35    1
    10     5     6    1
    11     5    36    1
    12     5    37    1
    13     6     7   am
    14     6    38    1
    15     7     8    2
    16     7     9    1
    17     9    14   ar
    18     9    10   ar
    19    10    11   ar
    20    10    39    1
    21    11    12   ar
    22    11    40    1
    23    12    13   ar
    24    12    41    1
    25    13    14   ar
    26    14    42    1
    27    15    16    1
    28    15    43    1
    29    16    17    1
    30    16    18    1
    31    16    26    1
    32    18    19    1
    33    18    44    1
    34    18    45    1
    35    19    20    1
    36    19    46    1
    37    19    47    1
    38    20    25   ar
    39    20    21   ar
    40    21    22   ar
    41    21    48    1
    42    22    23   ar
    43    22    49    1
    44    23    24   ar
    45    23    50    1
    46    24    25   ar
    47    24    51    1
    48    25    52    1
    49    26    31   ar
    50    26    27   ar
    51    27    28   ar
    52    27    53    1
    53    28    29   ar
    54    28    54    1
    55    29    30   ar
    56    29    55    1
    57    30    31   ar
    58    30    56    1
    59    31    57    1
@<TRIPOS>SUBSTRUCTURE
     1 ZINC000435005159        1 TEMP              0 ****  ****    0 ROOT


##########                                Name:    ZINC000770850676
##########                DOCK_Rotatable_Bonds:                  13
##########                         Heavy_Atoms:                  30
##########                    Molecular_Weight:             412.486
##########                DOCK_Rotatable_Bonds:                  13
##########                       Formal_Charge:          -0.0299994
##########                     HBond_Acceptors:                   7
##########                        HBond_Donors:                   3
##########                         Heavy_Atoms:                  30
##########                          Grid_Score:          -31.041220
##########                     Grid_vdw_energy:          -28.768948
##########                      Grid_es_energy:           -2.272272
##########           Internal_energy_repulsive:           12.799059

@<TRIPOS>MOLECULE
ZINC000770850676
 58 60 1 0 0
SMALL
USER_CHARGES


@<TRIPOS>ATOM
      1 O1         -0.0873    5.4174   52.0922 O.2     1  ZINC000770850676   -0.5300
      2 C2         -0.7103    4.5087   52.5993 C.2     1  ZINC000770850676    0.5100
      3 N3         -0.6001    3.2590   52.1068 N.am    1  ZINC000770850676   -0.7000
      4 C4          0.2673    2.9993   50.9551 C.3     1  ZINC000770850676    0.1600
      5 H5          0.3038    3.8850   50.3207 H       1  ZINC000770850676    0.1000
      6 C6         -0.2885    1.8205   50.1536 C.3     1  ZINC000770850676    0.0600
      7 O7         -1.7121    1.7916   50.2739 O.3     1  ZINC000770850676   -0.5700
      8 C8          1.6777    2.6639   51.4441 C.3     1  ZINC000770850676   -0.1500
      9 C9          2.5833    2.3918   50.2413 C.3     1  ZINC000770850676    0.1500
     10 H10         2.0138    2.5218   49.3211 H       1  ZINC000770850676    0.1100
     11 O11         3.6813    3.3061   50.2552 O.3     1  ZINC000770850676   -0.5400
     12 C12         3.1045    0.9797   50.3143 C.ar    1  ZINC000770850676   -0.1200
     13 C13         4.2402    0.6993   51.0510 C.ar    1  ZINC000770850676   -0.1100
     14 C14         4.7184   -0.5959   51.1179 C.ar    1  ZINC000770850676   -0.1200
     15 C15         4.0607   -1.6109   50.4487 C.ar    1  ZINC000770850676   -0.1200
     16 C16         2.9245   -1.3308   49.7127 C.ar    1  ZINC000770850676   -0.1200
     17 C17         2.4439   -0.0363   49.6493 C.ar    1  ZINC000770850676   -0.1100
     18 C18        -1.6026    4.7758   53.7840 C.3     1  ZINC000770850676    0.1400
     19 H19        -1.8046    5.8441   53.8624 H       1  ZINC000770850676    0.1000
     20 C20        -0.9238    4.2739   55.0759 C.3     1  ZINC000770850676   -0.1200
     21 C21        -2.1092    3.6834   55.8844 C.3     1  ZINC000770850676   -0.1300
     22 C22        -2.9863    3.0837   54.7571 C.3     1  ZINC000770850676    0.1000
     23 N23        -2.8653    4.0376   53.6354 N.am    1  ZINC000770850676   -0.5900
     24 C24        -3.7622    4.2007   52.6426 C.2     1  ZINC000770850676    0.6700
     25 O25        -3.5576    5.0183   51.7673 O.2     1  ZINC000770850676   -0.5600
     26 O26        -4.8847    3.4577   52.6208 O.3     1  ZINC000770850676   -0.3600
     27 C27        -5.8206    3.7090   51.5395 C.3     1  ZINC000770850676    0.1300
     28 C28        -6.9986    2.7779   51.6682 C.ar    1  ZINC000770850676   -0.1000
     29 C29        -6.7979    1.4108   51.7076 C.ar    1  ZINC000770850676   -0.0900
     30 C30        -7.8785    0.5567   51.8257 C.ar    1  ZINC000770850676   -0.1200
     31 C31        -9.1597    1.0698   51.9047 C.ar    1  ZINC000770850676   -0.1100
     32 C32        -9.3602    2.4370   51.8662 C.ar    1  ZINC000770850676   -0.1200
     33 C33        -8.2794    3.2912   51.7525 C.ar    1  ZINC000770850676   -0.0900
     34 H34        -1.0953    2.5315   52.5147 H       1  ZINC000770850676    0.4000
     35 H35        -0.0146    1.9332   49.1045 H       1  ZINC000770850676    0.0500
     36 H36         0.1278    0.8900   50.5398 H       1  ZINC000770850676    0.0500
     37 H37        -2.0317    1.8720   51.1830 H       1  ZINC000770850676    0.3800
     38 H38         2.0738    3.5041   52.0145 H       1  ZINC000770850676    0.0800
     39 H39         1.6411    1.7788   52.0792 H       1  ZINC000770850676    0.0900
     40 H40         4.1406    3.3822   49.4077 H       1  ZINC000770850676    0.3700
     41 H41         4.7540    1.4924   51.5739 H       1  ZINC000770850676    0.1200
     42 H42         5.6061   -0.8148   51.6929 H       1  ZINC000770850676    0.1200
     43 H43         4.4347   -2.6228   50.5003 H       1  ZINC000770850676    0.1200
     44 H44         2.4109   -2.1237   49.1895 H       1  ZINC000770850676    0.1200
     45 H45         1.5562    0.1826   49.0743 H       1  ZINC000770850676    0.1200
     46 H46        -0.1884    3.5017   54.8502 H       1  ZINC000770850676    0.0800
     47 H47        -0.4629    5.1010   55.6158 H       1  ZINC000770850676    0.1000
     48 H48        -1.7672    2.9066   56.5683 H       1  ZINC000770850676    0.0900
     49 H49        -2.6446    4.4665   56.4212 H       1  ZINC000770850676    0.0800
     50 H50        -2.6106    2.1031   54.4650 H       1  ZINC000770850676    0.0700
     51 H51        -4.0244    3.0118   55.0818 H       1  ZINC000770850676    0.0900
     52 H52        -6.1663    4.7415   51.5909 H       1  ZINC000770850676    0.0800
     53 H53        -5.3256    3.5387   50.5835 H       1  ZINC000770850676    0.0800
     54 H54        -5.7970    1.0100   51.6459 H       1  ZINC000770850676    0.1200
     55 H55        -7.7217   -0.5114   51.8558 H       1  ZINC000770850676    0.1300
     56 H56       -10.0039    0.4025   51.9962 H       1  ZINC000770850676    0.1300
     57 H57       -10.3612    2.8378   51.9275 H       1  ZINC000770850676    0.1300
     58 H58        -8.4361    4.3593   51.7224 H       1  ZINC000770850676    0.1200
@<TRIPOS>BOND
     1     1     2    2
     2     2     3   am
     3     2    18    1
     4     3     4    1
     5     3    34    1
     6     4     5    1
     7     4     6    1
     8     4     8    1
     9     6     7    1
    10     6    35    1
    11     6    36    1
    12     7    37    1
    13     8     9    1
    14     8    38    1
    15     8    39    1
    16     9    10    1
    17     9    11    1
    18     9    12    1
    19    11    40    1
    20    12    17   ar
    21    12    13   ar
    22    13    14   ar
    23    13    41    1
    24    14    15   ar
    25    14    42    1
    26    15    16   ar
    27    15    43    1
    28    16    17   ar
    29    16    44    1
    30    17    45    1
    31    18    19    1
    32    18    23    1
    33    18    20    1
    34    20    21    1
    35    20    46    1
    36    20    47    1
    37    21    22    1
    38    21    48    1
    39    21    49    1
    40    22    23    1
    41    22    50    1
    42    22    51    1
    43    23    24   am
    44    24    25    2
    45    24    26    1
    46    26    27    1
    47    27    28    1
    48    27    52    1
    49    27    53    1
    50    28    33   ar
    51    28    29   ar
    52    29    30   ar
    53    29    54    1
    54    30    31   ar
    55    30    55    1
    56    31    32   ar
    57    31    56    1
    58    32    33   ar
    59    32    57    1
    60    33    58    1
@<TRIPOS>SUBSTRUCTURE
     1 ZINC000770850676        1 TEMP              0 ****  ****    0 ROOT


##########                                Name:    ZINC001053792610
##########                DOCK_Rotatable_Bonds:                   5
##########                         Heavy_Atoms:                  25
##########                    Molecular_Weight:             347.374
##########                DOCK_Rotatable_Bonds:                   5
##########                       Formal_Charge:          -0.0400001
##########                     HBond_Acceptors:                   9
##########                        HBond_Donors:                   2
##########                         Heavy_Atoms:                  25
##########                          Grid_Score:          -31.027485
##########                     Grid_vdw_energy:          -30.350676
##########                      Grid_es_energy:           -0.676810
##########           Internal_energy_repulsive:            6.516048

@<TRIPOS>MOLECULE
ZINC001053792610
 46 49 1 0 0
SMALL
USER_CHARGES


@<TRIPOS>ATOM
      1 C1         -5.2391    2.4933   51.5954 C.3     1  ZINC001053792610   -0.1000
      2 C2         -6.5845    1.8512   51.8165 C.ar    1  ZINC001053792610    0.0800
      3 C3         -6.8033    0.5467   51.4113 C.ar    1  ZINC001053792610    0.0600
      4 N4         -7.9831   -0.0163   51.6051 N.ar    1  ZINC001053792610   -0.4200
      5 C5         -8.9536    0.6666   52.1859 C.ar    1  ZINC001053792610    0.0800
      6 C6        -10.2988    0.0244   52.4073 C.3     1  ZINC001053792610    0.0700
      7 N7        -10.2988   -0.6804   53.6962 N.3     1  ZINC001053792610   -0.4500
      8 C8        -11.6366   -1.2247   54.0014 C.3     1  ZINC001053792610   -0.0100
      9 C9        -11.4316   -0.7579   55.4412 C.3     1  ZINC001053792610    0.0800
     10 C10       -10.4845    0.2640   54.8156 C.3     1  ZINC001053792610   -0.0100
     11 C11       -12.6765   -0.1668   56.1210 C.3     1  ZINC001053792610   -0.1500
     12 C12       -13.0032   -1.2465   57.1909 C.3     1  ZINC001053792610    0.1100
     13 H13       -13.5013   -0.8056   58.0544 H       1  ZINC001053792610    0.1200
     14 N14       -13.8064   -2.3300   56.6189 N.am    1  ZINC001053792610   -0.7100
     15 C15       -15.1399   -2.3553   56.8133 C.2     1  ZINC001053792610    0.5000
     16 O16       -15.6750   -1.4803   57.4606 O.2     1  ZINC001053792610   -0.5100
     17 C17       -15.9658   -3.4708   56.2264 C.3     1  ZINC001053792610    0.0800
     18 H18       -16.9971   -3.1479   56.0837 H       1  ZINC001053792610    0.1300
     19 C19       -15.3593   -3.9498   54.8932 C.3     1  ZINC001053792610    0.0500
     20 O20       -15.0275   -5.3471   55.1386 O.3     1  ZINC001053792610   -0.3200
     21 C21       -15.3660   -5.6727   56.3912 C.2     1  ZINC001053792610    0.6500
     22 O22       -15.1961   -6.7820   56.8569 O.2     1  ZINC001053792610   -0.5100
     23 N23       -15.9118   -4.6620   57.0876 N.am    1  ZINC001053792610   -0.7100
     24 C24       -11.5804   -1.7398   57.5590 C.3     1  ZINC001053792610    0.0400
     25 O25       -10.8380   -1.7020   56.3269 O.3     1  ZINC001053792610   -0.3300
     26 C26        -8.7347    1.9716   52.5912 C.ar    1  ZINC001053792610    0.0600
     27 N27        -7.5535    2.5326   52.4024 N.ar    1  ZINC001053792610   -0.4400
     28 H28        -4.6009    2.3061   52.4591 H       1  ZINC001053792610    0.0800
     29 H29        -4.7767    2.0702   50.7036 H       1  ZINC001053792610    0.0800
     30 H30        -5.3665    3.5678   51.4639 H       1  ZINC001053792610    0.0800
     31 H31        -6.0101   -0.0114   50.9363 H       1  ZINC001053792610    0.1700
     32 H32       -11.0717    0.7931   52.4135 H       1  ZINC001053792610    0.1000
     33 H33       -10.4991   -0.6856   51.6050 H       1  ZINC001053792610    0.0600
     34 H34       -12.4451   -0.7054   53.4870 H       1  ZINC001053792610    0.0800
     35 H35       -11.6985   -2.3083   53.9003 H       1  ZINC001053792610    0.0900
     36 H36        -9.5786    0.4309   55.3983 H       1  ZINC001053792610    0.1000
     37 H37       -10.9768    1.1918   54.5245 H       1  ZINC001053792610    0.0800
     38 H38       -12.4466    0.7896   56.5906 H       1  ZINC001053792610    0.1000
     39 H39       -13.4960   -0.0628   55.4100 H       1  ZINC001053792610    0.1000
     40 H40       -13.3786   -3.0291   56.1002 H       1  ZINC001053792610    0.4000
     41 H41       -16.0902   -3.8661   54.0890 H       1  ZINC001053792610    0.1200
     42 H42       -14.4611   -3.3798   54.6554 H       1  ZINC001053792610    0.1100
     43 H43       -16.2168   -4.7106   58.0071 H       1  ZINC001053792610    0.4400
     44 H44       -11.1276   -1.0741   58.2938 H       1  ZINC001053792610    0.0800
     45 H45       -11.6212   -2.7584   57.9449 H       1  ZINC001053792610    0.0900
     46 H46        -9.5280    2.5299   53.0660 H       1  ZINC001053792610    0.1600
@<TRIPOS>BOND
     1     1     2    1
     2     1    28    1
     3     1    29    1
     4     1    30    1
     5     2    27   ar
     6     2     3   ar
     7     3     4   ar
     8     3    31    1
     9     4     5   ar
    10     5     6    1
    11     5    26   ar
    12     6     7    1
    13     6    32    1
    14     6    33    1
    15     7    10    1
    16     7     8    1
    17     8     9    1
    18     8    34    1
    19     8    35    1
    20     9    25    1
    21     9    10    1
    22     9    11    1
    23    10    36    1
    24    10    37    1
    25    11    12    1
    26    11    38    1
    27    11    39    1
    28    12    13    1
    29    12    14    1
    30    12    24    1
    31    14    15   am
    32    14    40    1
    33    15    16    2
    34    15    17    1
    35    17    18    1
    36    17    23    1
    37    17    19    1
    38    19    20    1
    39    19    41    1
    40    19    42    1
    41    20    21    1
    42    21    22    2
    43    21    23   am
    44    23    43    1
    45    24    25    1
    46    24    44    1
    47    24    45    1
    48    26    27   ar
    49    26    46    1
@<TRIPOS>SUBSTRUCTURE
     1 ZINC001053792610        1 TEMP              0 ****  ****    0 ROOT


##########                                Name:    ZINC001004075025
##########                DOCK_Rotatable_Bonds:                   8
##########                         Heavy_Atoms:                  25
##########                    Molecular_Weight:              349.43
##########                DOCK_Rotatable_Bonds:                   8
##########                       Formal_Charge:         -0.00999999
##########                     HBond_Acceptors:                   7
##########                        HBond_Donors:                   1
##########                         Heavy_Atoms:                  25
##########                          Grid_Score:          -31.014263
##########                     Grid_vdw_energy:          -29.653275
##########                      Grid_es_energy:           -1.360989
##########           Internal_energy_repulsive:           15.775526

@<TRIPOS>MOLECULE
ZINC001004075025
 52 54 1 0 0
SMALL
USER_CHARGES


@<TRIPOS>ATOM
      1 C1         -1.5599    2.1041   63.2603 C.3     1  ZINC001004075025   -0.1500
      2 C2         -0.6002    1.2739   62.4052 C.3     1  ZINC001004075025   -0.1200
      3 C3         -0.2518    2.0480   61.1324 C.3     1  ZINC001004075025    0.0800
      4 H4         -1.1547    2.2586   60.5592 H       1  ZINC001004075025    0.0700
      5 C5          0.4789    3.3673   61.4883 C.3     1  ZINC001004075025   -0.1500
      6 C6          1.2714    3.6279   60.1783 C.3     1  ZINC001004075025   -0.1400
      7 C7          1.6145    2.1965   59.7125 C.3     1  ZINC001004075025    0.0700
      8 H8          2.6303    1.9427   60.0152 H       1  ZINC001004075025    0.1100
      9 C9          1.4890    2.1028   58.2137 C.2     1  ZINC001004075025    0.5300
     10 O10         2.4586    1.8256   57.5401 O.2     1  ZINC001004075025   -0.5200
     11 N11         0.2992    2.3273   57.6217 N.am    1  ZINC001004075025   -0.6500
     12 C12        -0.2153    2.3244   56.2440 C.3     1  ZINC001004075025    0.1100
     13 C13        -1.2803    3.3327   56.6973 C.3     1  ZINC001004075025   -0.1400
     14 C14        -2.6695    3.0864   56.1055 C.3     1  ZINC001004075025    0.1300
     15 N15        -2.5543    2.8754   54.6604 N.am    1  ZINC001004075025   -0.7200
     16 C16        -3.5808    3.1972   53.8484 C.2     1  ZINC001004075025    0.6000
     17 O17        -4.6020    3.6639   54.3152 O.2     1  ZINC001004075025   -0.5300
     18 C18        -3.4654    2.9833   52.3945 C.2     1  ZINC001004075025   -0.2700
     19 C19        -4.4167    2.5188   51.5193 C.2     1  ZINC001004075025    0.0700
     20 C20        -5.8287    2.1112   51.8525 C.3     1  ZINC001004075025   -0.0300
     21 C21        -6.7857    3.2512   51.4982 C.3     1  ZINC001004075025   -0.1500
     22 C22        -6.2024    0.8636   51.0496 C.3     1  ZINC001004075025   -0.1500
     23 O23        -3.8415    2.5002   50.3147 O.3     1  ZINC001004075025    0.1000
     24 N24        -2.6964    2.8800   50.3297 N.2     1  ZINC001004075025   -0.3500
     25 C25        -2.3053    3.2207   51.5219 C.2     1  ZINC001004075025    0.0200
     26 C26        -1.0574    2.6763   58.0697 C.3     1  ZINC001004075025    0.1100
     27 O27         0.6822    1.3027   60.3353 O.3     1  ZINC001004075025   -0.3400
     28 H28        -1.8082    1.5526   64.1671 H       1  ZINC001004075025    0.0600
     29 H29        -1.0846    3.0478   63.5275 H       1  ZINC001004075025    0.0500
     30 H30        -2.4705    2.3030   62.6953 H       1  ZINC001004075025    0.0600
     31 H31         0.3104    1.0750   62.9703 H       1  ZINC001004075025    0.0800
     32 H32        -1.0756    0.3302   62.1380 H       1  ZINC001004075025    0.0700
     33 H33        -0.2322    4.1699   61.6835 H       1  ZINC001004075025    0.0900
     34 H34         1.1525    3.2274   62.3337 H       1  ZINC001004075025    0.0900
     35 H35         0.6484    4.1365   59.4426 H       1  ZINC001004075025    0.0800
     36 H36         2.1783    4.1978   60.3805 H       1  ZINC001004075025    0.0900
     37 H37         0.4873    2.7324   55.5174 H       1  ZINC001004075025    0.0900
     38 H38        -0.6296    1.3640   55.9373 H       1  ZINC001004075025    0.0900
     39 H39        -0.9644    4.3741   56.6362 H       1  ZINC001004075025    0.1100
     40 H40        -3.1098    2.2028   56.5677 H       1  ZINC001004075025    0.0800
     41 H41        -3.3047    3.9512   56.2969 H       1  ZINC001004075025    0.0800
     42 H42        -1.7391    2.5042   54.2879 H       1  ZINC001004075025    0.4000
     43 H43        -5.9021    1.8931   52.9179 H       1  ZINC001004075025    0.1300
     44 H44        -6.7123    3.4694   50.4328 H       1  ZINC001004075025    0.0600
     45 H45        -7.8070    2.9565   51.7393 H       1  ZINC001004075025    0.0700
     46 H46        -6.5195    4.1401   52.0702 H       1  ZINC001004075025    0.0600
     47 H47        -6.1290    1.0817   49.9842 H       1  ZINC001004075025    0.0600
     48 H48        -5.5206    0.0514   51.3020 H       1  ZINC001004075025    0.0600
     49 H49        -7.2237    0.5688   51.2906 H       1  ZINC001004075025    0.0700
     50 H50        -1.3333    3.5925   51.8110 H       1  ZINC001004075025    0.2000
     51 H51        -1.6962    1.8109   58.2458 H       1  ZINC001004075025    0.0900
     52 H52        -1.0700    3.3856   58.8973 H       1  ZINC001004075025    0.0800
@<TRIPOS>BOND
     1     1     2    1
     2     1    28    1
     3     1    29    1
     4     1    30    1
     5     2     3    1
     6     2    31    1
     7     2    32    1
     8     3     4    1
     9     3    27    1
    10     3     5    1
    11     5     6    1
    12     5    33    1
    13     5    34    1
    14     6     7    1
    15     6    35    1
    16     6    36    1
    17     7     8    1
    18     7     9    1
    19     7    27    1
    20     9    10    2
    21     9    11   am
    22    11    26    1
    23    11    12    1
    24    12    13    1
    25    12    37    1
    26    12    38    1
    27    13    14    1
    28    13    26    1
    29    13    39    1
    30    14    15    1
    31    14    40    1
    32    14    41    1
    33    15    16   am
    34    15    42    1
    35    16    17    2
    36    16    18    1
    37    18    25    1
    38    18    19    2
    39    19    20    1
    40    19    23    1
    41    20    21    1
    42    20    22    1
    43    20    43    1
    44    21    44    1
    45    21    45    1
    46    21    46    1
    47    22    47    1
    48    22    48    1
    49    22    49    1
    50    23    24    1
    51    24    25    2
    52    25    50    1
    53    26    51    1
    54    26    52    1
@<TRIPOS>SUBSTRUCTURE
     1 ZINC001004075025        1 TEMP              0 ****  ****    0 ROOT


##########                                Name:    ZINC000503413572
##########                DOCK_Rotatable_Bonds:                   7
##########                         Heavy_Atoms:                  26
##########                    Molecular_Weight:             355.375
##########                DOCK_Rotatable_Bonds:                   7
##########                       Formal_Charge:        -1.71363e-07
##########                     HBond_Acceptors:                   9
##########                        HBond_Donors:                   1
##########                         Heavy_Atoms:                  26
##########                          Grid_Score:          -30.956347
##########                     Grid_vdw_energy:          -30.321964
##########                      Grid_es_energy:           -0.634382
##########           Internal_energy_repulsive:            7.620005

@<TRIPOS>MOLECULE
ZINC000503413572
 44 47 1 0 0
SMALL
USER_CHARGES


@<TRIPOS>ATOM
      1 C1        -10.0436    2.8034   52.2432 C.3     1  ZINC000503413572   -0.1200
      2 C2         -8.7059    2.1842   51.9298 C.ar    1  ZINC000503413572   -0.0200
      3 C3         -7.7095    2.9471   51.3540 C.ar    1  ZINC000503413572   -0.1400
      4 C4         -6.4797    2.3786   51.0661 C.ar    1  ZINC000503413572    0.1300
      5 F5         -5.5057    3.1267   50.5031 F       1  ZINC000503413572   -0.1300
      6 C6         -6.2471    1.0446   51.3552 C.ar    1  ZINC000503413572   -0.1400
      7 C7         -7.2415    0.2783   51.9313 C.ar    1  ZINC000503413572   -0.0700
      8 C8         -8.4728    0.8477   52.2252 C.ar    1  ZINC000503413572    0.1000
      9 N9         -9.4837    0.0712   52.8107 N.pl3   1  ZINC000503413572   -0.3100
     10 C10        -9.6974   -0.1092   54.1320 C.2     1  ZINC000503413572    0.1100
     11 C11       -10.7809   -0.9335   54.2478 C.2     1  ZINC000503413572   -0.1000
     12 C12       -11.3760   -1.4028   55.5133 C.2     1  ZINC000503413572    0.6100
     13 O13       -12.0037   -2.4438   55.5407 O.2     1  ZINC000503413572   -0.5300
     14 N14       -11.2239   -0.6776   56.6391 N.am    1  ZINC000503413572   -0.7200
     15 C15       -11.8135   -1.1446   57.8964 C.3     1  ZINC000503413572    0.1100
     16 C16       -13.3214   -0.8861   57.8795 C.3     1  ZINC000503413572    0.1000
     17 N17       -13.9609   -1.6575   58.9483 N.pl3   1  ZINC000503413572   -0.4700
     18 C18       -14.0699   -1.3077   60.2528 C.2     1  ZINC000503413572    0.1500
     19 N19       -14.7065   -2.2712   60.8612 N.2     1  ZINC000503413572   -0.2900
     20 N20       -14.9998   -3.1966   60.0178 N.2     1  ZINC000503413572   -0.2900
     21 C21       -14.5686   -2.8629   58.8319 C.2     1  ZINC000503413572    0.2100
     22 C22       -14.7113   -3.6730   57.5692 C.3     1  ZINC000503413572   -0.1000
     23 C23       -15.8631   -4.6777   57.5007 C.3     1  ZINC000503413572   -0.1500
     24 C24       -15.9232   -3.3879   56.6800 C.3     1  ZINC000503413572   -0.1600
     25 N25       -11.2129   -1.2446   53.0136 N.2     1  ZINC000503413572   -0.2000
     26 N26       -10.4707   -0.6624   52.1372 N.2     1  ZINC000503413572   -0.0400
     27 H27       -10.0567    3.1338   53.2818 H       1  ZINC000503413572    0.0900
     28 H28       -10.2109    3.6582   51.5878 H       1  ZINC000503413572    0.0800
     29 H29       -10.8309    2.0660   52.0867 H       1  ZINC000503413572    0.0700
     30 H30        -7.8893    3.9876   51.1274 H       1  ZINC000503413572    0.1500
     31 H31        -5.2877    0.6028   51.1298 H       1  ZINC000503413572    0.1500
     32 H32        -7.0598   -0.7622   52.1563 H       1  ZINC000503413572    0.1500
     33 H33        -9.1223    0.3159   54.9413 H       1  ZINC000503413572    0.2100
     34 H34       -10.7242    0.1535   56.6170 H       1  ZINC000503413572    0.4100
     35 H35       -11.6291   -2.2129   58.0095 H       1  ZINC000503413572    0.0800
     36 H36       -11.3621   -0.6077   58.7308 H       1  ZINC000503413572    0.0800
     37 H37       -13.5098    0.1761   58.0354 H       1  ZINC000503413572    0.1100
     38 H38       -13.7315   -1.1905   56.9165 H       1  ZINC000503413572    0.1100
     39 H39       -13.6982   -0.4003   60.7054 H       1  ZINC000503413572    0.2200
     40 H40       -13.7775   -3.9430   57.0759 H       1  ZINC000503413572    0.1200
     41 H41       -15.6873   -5.6090   56.9624 H       1  ZINC000503413572    0.1100
     42 H42       -16.5178   -4.7527   58.3690 H       1  ZINC000503413572    0.1100
     43 H43       -16.6175   -2.6143   57.0083 H       1  ZINC000503413572    0.1000
     44 H44       -15.7869   -3.4706   55.6017 H       1  ZINC000503413572    0.1100
@<TRIPOS>BOND
     1     1     2    1
     2     1    27    1
     3     1    28    1
     4     1    29    1
     5     2     8   ar
     6     2     3   ar
     7     3     4   ar
     8     3    30    1
     9     4     5    1
    10     4     6   ar
    11     6     7   ar
    12     6    31    1
    13     7     8   ar
    14     7    32    1
    15     8     9    1
    16     9    26    1
    17     9    10    1
    18    10    11    2
    19    10    33    1
    20    11    12    1
    21    11    25    1
    22    12    13    2
    23    12    14   am
    24    14    15    1
    25    14    34    1
    26    15    16    1
    27    15    35    1
    28    15    36    1
    29    16    17    1
    30    16    37    1
    31    16    38    1
    32    17    21    1
    33    17    18    1
    34    18    19    2
    35    18    39    1
    36    19    20    1
    37    20    21    2
    38    21    22    1
    39    22    24    1
    40    22    23    1
    41    22    40    1
    42    23    24    1
    43    23    41    1
    44    23    42    1
    45    24    43    1
    46    24    44    1
    47    25    26    2
@<TRIPOS>SUBSTRUCTURE
     1 ZINC000503413572        1 TEMP              0 ****  ****    0 ROOT


##########                                Name:    ZINC000114394234
##########                DOCK_Rotatable_Bonds:                   9
##########                         Heavy_Atoms:                  27
##########                    Molecular_Weight:             365.392
##########                DOCK_Rotatable_Bonds:                   9
##########                       Formal_Charge:           0.0300002
##########                     HBond_Acceptors:                   8
##########                        HBond_Donors:                   3
##########                         Heavy_Atoms:                  27
##########                          Grid_Score:          -30.945696
##########                     Grid_vdw_energy:          -29.164217
##########                      Grid_es_energy:           -1.781479
##########           Internal_energy_repulsive:           10.330304

@<TRIPOS>MOLECULE
ZINC000114394234
 46 48 1 0 0
SMALL
USER_CHARGES


@<TRIPOS>ATOM
      1 C1        -12.5998    0.1582   53.7436 C.3     1  ZINC000114394234   -0.1600
      2 C2        -11.5528   -0.8471   54.2274 C.3     1  ZINC000114394234    0.1300
      3 H3        -11.7507   -1.8213   53.7803 H       1  ZINC000114394234    0.1200
      4 N4        -10.2180   -0.3904   53.8319 N.am    1  ZINC000114394234   -0.7100
      5 C5         -9.8328   -0.4706   52.5429 C.2     1  ZINC000114394234    0.5200
      6 O6        -10.5905   -0.9223   51.7105 O.2     1  ZINC000114394234   -0.5100
      7 C7         -8.4606    0.0008   52.1359 C.3     1  ZINC000114394234    0.0400
      8 O8         -8.5034    1.3999   51.8482 O.3     1  ZINC000114394234   -0.2900
      9 C9         -7.3131    2.0269   51.6558 C.ar    1  ZINC000114394234    0.1300
     10 C10        -6.1616    1.2824   51.4450 C.ar    1  ZINC000114394234   -0.2100
     11 C11        -4.9530    1.9222   51.2492 C.ar    1  ZINC000114394234   -0.0800
     12 C12        -4.8902    3.3033   51.2637 C.ar    1  ZINC000114394234   -0.1600
     13 C13        -6.0363    4.0476   51.4741 C.ar    1  ZINC000114394234   -0.0800
     14 C14        -7.2485    3.4127   51.6642 C.ar    1  ZINC000114394234   -0.1500
     15 C15       -11.6208   -0.9601   55.7286 C.2     1  ZINC000114394234    0.5100
     16 O16       -12.6538   -0.7028   56.3099 O.2     1  ZINC000114394234   -0.5100
     17 N17       -10.5339   -1.3470   56.4252 N.am    1  ZINC000114394234   -0.6700
     18 C18       -10.5972   -1.4519   57.8192 C.ar    1  ZINC000114394234    0.1300
     19 C19       -11.2505   -2.5285   58.4060 C.ar    1  ZINC000114394234   -0.1200
     20 C20       -11.3150   -2.6355   59.7825 C.ar    1  ZINC000114394234   -0.1000
     21 C21       -10.7312   -1.6734   60.5818 C.ar    1  ZINC000114394234   -0.0900
     22 C22       -10.0741   -0.5896   60.0017 C.ar    1  ZINC000114394234    0.0000
     23 C23        -9.4464    0.4460   60.8596 C.2     1  ZINC000114394234    0.2700
     24 N24        -9.5734    1.7462   60.7090 N.2     1  ZINC000114394234   -0.3000
     25 N25        -8.8191    2.3466   61.7301 N.pl3   1  ZINC000114394234   -0.4800
     26 C26        -8.2756    1.3442   62.4440 C.2     1  ZINC000114394234    0.2700
     27 N27        -8.6611    0.2111   61.9194 N.2     1  ZINC000114394234   -0.5300
     28 C28       -10.0028   -0.4844   58.6155 C.ar    1  ZINC000114394234   -0.0800
     29 H29       -12.4019    1.1324   54.1907 H       1  ZINC000114394234    0.0700
     30 H30       -12.5507    0.2399   52.6578 H       1  ZINC000114394234    0.0800
     31 H31       -13.5928   -0.1816   54.0379 H       1  ZINC000114394234    0.0800
     32 H32        -9.6116   -0.0303   54.4979 H       1  ZINC000114394234    0.4100
     33 H33        -7.7577   -0.1817   52.9487 H       1  ZINC000114394234    0.1000
     34 H34        -8.1382   -0.5430   51.2479 H       1  ZINC000114394234    0.1000
     35 H35        -6.2100    0.2035   51.4344 H       1  ZINC000114394234    0.1300
     36 H36        -4.0564    1.3430   51.0851 H       1  ZINC000114394234    0.1300
     37 H37        -3.9444    3.8016   51.1108 H       1  ZINC000114394234    0.1300
     38 H38        -5.9847    5.1263   51.4853 H       1  ZINC000114394234    0.1300
     39 H39        -8.1434    3.9945   51.8285 H       1  ZINC000114394234    0.1300
     40 H40        -9.7078   -1.5528   55.9603 H       1  ZINC000114394234    0.4200
     41 H41       -11.7094   -3.2836   57.7850 H       1  ZINC000114394234    0.1300
     42 H42       -11.8240   -3.4743   60.2341 H       1  ZINC000114394234    0.1400
     43 H43       -10.7839   -1.7600   61.6571 H       1  ZINC000114394234    0.1400
     44 H44        -8.7109    3.2973   61.8892 H       1  ZINC000114394234    0.4400
     45 H45        -7.6345    1.4566   63.3058 H       1  ZINC000114394234    0.2300
     46 H46        -9.4948    0.3534   58.1614 H       1  ZINC000114394234    0.1500
@<TRIPOS>BOND
     1     1     2    1
     2     1    29    1
     3     1    30    1
     4     1    31    1
     5     2     3    1
     6     2     4    1
     7     2    15    1
     8     4     5   am
     9     4    32    1
    10     5     6    2
    11     5     7    1
    12     7     8    1
    13     7    33    1
    14     7    34    1
    15     8     9    1
    16     9    14   ar
    17     9    10   ar
    18    10    11   ar
    19    10    35    1
    20    11    12   ar
    21    11    36    1
    22    12    13   ar
    23    12    37    1
    24    13    14   ar
    25    13    38    1
    26    14    39    1
    27    15    16    2
    28    15    17   am
    29    17    18    1
    30    17    40    1
    31    18    28   ar
    32    18    19   ar
    33    19    20   ar
    34    19    41    1
    35    20    21   ar
    36    20    42    1
    37    21    22   ar
    38    21    43    1
    39    22    23    1
    40    22    28   ar
    41    23    27    1
    42    23    24    2
    43    24    25    1
    44    25    26    1
    45    25    44    1
    46    26    27    2
    47    26    45    1
    48    28    46    1
@<TRIPOS>SUBSTRUCTURE
     1 ZINC000114394234        1 TEMP              0 ****  ****    0 ROOT


##########                                Name:    ZINC001347442583
##########                DOCK_Rotatable_Bonds:                   9
##########                         Heavy_Atoms:                  27
##########                    Molecular_Weight:             370.492
##########                DOCK_Rotatable_Bonds:                   9
##########                       Formal_Charge:          -0.0400009
##########                     HBond_Acceptors:                   5
##########                        HBond_Donors:                   1
##########                         Heavy_Atoms:                  27
##########                          Grid_Score:          -30.938637
##########                     Grid_vdw_energy:          -29.439585
##########                      Grid_es_energy:           -1.499051
##########           Internal_energy_repulsive:           12.445431

@<TRIPOS>MOLECULE
ZINC001347442583
 57 60 1 0 0
SMALL
USER_CHARGES


@<TRIPOS>ATOM
      1 O1         -7.5166    0.5973   58.3797 O.2     1  ZINC001347442583   -0.5400
      2 C2         -8.2635    1.3381   58.9833 C.2     1  ZINC001347442583    0.5400
      3 C3         -8.4580    2.7572   58.5150 C.3     1  ZINC001347442583   -0.1400
      4 C4         -7.8168    2.9319   57.1368 C.3     1  ZINC001347442583   -0.1000
      5 C5         -8.7829    2.4371   56.0585 C.3     1  ZINC001347442583   -0.1100
      6 C6         -8.0938    2.4900   54.6934 C.3     1  ZINC001347442583   -0.0800
      7 C7         -8.7224    1.4749   53.7738 C.ar    1  ZINC001347442583   -0.0800
      8 C8         -7.9376    0.7771   52.8748 C.ar    1  ZINC001347442583   -0.1200
      9 C9         -8.5143   -0.1540   52.0314 C.ar    1  ZINC001347442583   -0.1200
     10 C10        -9.8755   -0.3876   52.0871 C.ar    1  ZINC001347442583   -0.1300
     11 C11       -10.6602    0.3094   52.9868 C.ar    1  ZINC001347442583   -0.1200
     12 C12       -10.0828    1.2374   53.8333 C.ar    1  ZINC001347442583   -0.1200
     13 N13        -8.9239    0.8905   60.0696 N.am    1  ZINC001347442583   -0.6300
     14 C14        -9.8959    1.5823   60.9827 C.3     1  ZINC001347442583    0.1200
     15 H15       -10.1121    2.6239   60.7455 H       1  ZINC001347442583    0.1200
     16 C16        -9.2318    1.3324   62.3703 C.3     1  ZINC001347442583   -0.1300
     17 C17        -8.5635   -0.0547   62.2050 C.3     1  ZINC001347442583   -0.1300
     18 C18        -8.9197   -0.4559   60.7363 C.3     1  ZINC001347442583    0.1200
     19 H19        -8.2729   -1.2077   60.2840 H       1  ZINC001347442583    0.1200
     20 C20       -10.4377   -0.8068   60.7691 C.3     1  ZINC001347442583    0.1300
     21 H21       -10.6636   -1.4563   61.6148 H       1  ZINC001347442583    0.1100
     22 N22       -10.8492   -1.4370   59.5122 N.am    1  ZINC001347442583   -0.7200
     23 C23       -12.0615   -2.0175   59.4146 C.2     1  ZINC001347442583    0.5300
     24 O24       -12.8126   -2.0169   60.3669 O.2     1  ZINC001347442583   -0.5300
     25 C25       -12.4840   -2.6673   58.1221 C.3     1  ZINC001347442583   -0.1500
     26 H26       -12.0692   -3.6720   58.0414 H       1  ZINC001347442583    0.1100
     27 C27       -14.0318   -2.6969   57.9985 C.3     1  ZINC001347442583   -0.1400
     28 C28       -14.2041   -2.6849   56.4587 C.3     1  ZINC001347442583    0.0500
     29 O29       -13.1539   -1.8353   55.9704 O.3     1  ZINC001347442583   -0.3800
     30 C30       -12.0701   -1.8031   56.9117 C.3     1  ZINC001347442583    0.0700
     31 C31       -11.1126    0.6108   60.9152 C.3     1  ZINC001347442583   -0.1400
     32 H32        -9.5240    2.9756   58.4500 H       1  ZINC001347442583    0.0900
     33 H33        -7.9896    3.4409   59.2229 H       1  ZINC001347442583    0.0900
     34 H34        -7.5952    3.9861   56.9702 H       1  ZINC001347442583    0.0700
     35 H35        -6.8934    2.3547   57.0899 H       1  ZINC001347442583    0.0700
     36 H36        -9.0772    1.4107   56.2774 H       1  ZINC001347442583    0.0600
     37 H37        -9.6677    3.0736   56.0436 H       1  ZINC001347442583    0.0600
     38 H38        -8.2081    3.4865   54.2670 H       1  ZINC001347442583    0.0700
     39 H39        -7.0339    2.2650   54.8125 H       1  ZINC001347442583    0.0700
     40 H40        -6.8741    0.9597   52.8312 H       1  ZINC001347442583    0.1200
     41 H41        -7.9012   -0.6985   51.3285 H       1  ZINC001347442583    0.1200
     42 H42       -10.3262   -1.1146   51.4277 H       1  ZINC001347442583    0.1200
     43 H43       -11.7238    0.1271   53.0302 H       1  ZINC001347442583    0.1200
     44 H44       -10.6959    1.7821   54.5362 H       1  ZINC001347442583    0.1200
     45 H45        -8.4836    2.0965   62.5811 H       1  ZINC001347442583    0.0700
     46 H46        -9.9855    1.3041   63.1572 H       1  ZINC001347442583    0.0800
     47 H47        -7.4837    0.0216   62.3340 H       1  ZINC001347442583    0.0800
     48 H48        -8.9857   -0.7708   62.9099 H       1  ZINC001347442583    0.0800
     49 H49       -10.2489   -1.4363   58.7502 H       1  ZINC001347442583    0.4000
     50 H50       -14.4433   -3.6081   58.4328 H       1  ZINC001347442583    0.0900
     51 H51       -14.4790   -1.8117   58.4507 H       1  ZINC001347442583    0.0900
     52 H52       -14.0929   -3.6925   56.0578 H       1  ZINC001347442583    0.0700
     53 H53       -15.1778   -2.2754   56.1901 H       1  ZINC001347442583    0.0900
     54 H54       -11.8926   -0.7778   57.2362 H       1  ZINC001347442583    0.0700
     55 H55       -11.1687   -2.2080   56.4518 H       1  ZINC001347442583    0.0800
     56 H56       -11.6797    0.6723   61.8440 H       1  ZINC001347442583    0.0900
     57 H57       -11.7528    0.8213   60.0585 H       1  ZINC001347442583    0.0800
@<TRIPOS>BOND
     1     1     2    2
     2     2     3    1
     3     2    13   am
     4     3     4    1
     5     3    32    1
     6     3    33    1
     7     4     5    1
     8     4    34    1
     9     4    35    1
    10     5     6    1
    11     5    36    1
    12     5    37    1
    13     6     7    1
    14     6    38    1
    15     6    39    1
    16     7    12   ar
    17     7     8   ar
    18     8     9   ar
    19     8    40    1
    20     9    10   ar
    21     9    41    1
    22    10    11   ar
    23    10    42    1
    24    11    12   ar
    25    11    43    1
    26    12    44    1
    27    13    18    1
    28    13    14    1
    29    14    15    1
    30    14    31    1
    31    14    16    1
    32    16    17    1
    33    16    45    1
    34    16    46    1
    35    17    18    1
    36    17    47    1
    37    17    48    1
    38    18    19    1
    39    18    20    1
    40    20    21    1
    41    20    22    1
    42    20    31    1
    43    22    23   am
    44    22    49    1
    45    23    24    2
    46    23    25    1
    47    25    26    1
    48    25    30    1
    49    25    27    1
    50    27    28    1
    51    27    50    1
    52    27    51    1
    53    28    29    1
    54    28    52    1
    55    28    53    1
    56    29    30    1
    57    30    54    1
    58    30    55    1
    59    31    56    1
    60    31    57    1
@<TRIPOS>SUBSTRUCTURE
     1 ZINC001347442583        1 TEMP              0 ****  ****    0 ROOT


##########                                Name:    ZINC000429196987
##########                DOCK_Rotatable_Bonds:                   7
##########                         Heavy_Atoms:                  28
##########                    Molecular_Weight:             403.505
##########                DOCK_Rotatable_Bonds:                   7
##########                       Formal_Charge:          -0.0399997
##########                     HBond_Acceptors:                   9
##########                        HBond_Donors:                   1
##########                         Heavy_Atoms:                  28
##########                          Grid_Score:          -30.866495
##########                     Grid_vdw_energy:          -30.690886
##########                      Grid_es_energy:           -0.175609
##########           Internal_energy_repulsive:           13.808919

@<TRIPOS>MOLECULE
ZINC000429196987
 53 55 1 0 0
SMALL
USER_CHARGES


@<TRIPOS>ATOM
      1 C1         -0.8221    4.4404   51.4641 C.3     1  ZINC000429196987    0.0800
      2 N2         -1.8856    3.6915   50.7900 N.am    1  ZINC000429196987   -0.6300
      3 C3         -1.7322    3.3055   49.3851 C.3     1  ZINC000429196987    0.1600
      4 C4         -0.5783    2.3457   49.2509 C.ar    1  ZINC000429196987   -0.0600
      5 C5         -0.3572    1.3901   50.2251 C.ar    1  ZINC000429196987   -0.1300
      6 C6          0.7014    0.5097   50.1020 C.ar    1  ZINC000429196987   -0.0300
      7 C7          1.5386    0.5845   49.0046 C.ar    1  ZINC000429196987   -0.6600
      8 S8          2.8881   -0.5375   48.8479 S.o2    1  ZINC000429196987    2.5000
      9 C9          4.2610    0.2833   49.7035 C.3     1  ZINC000429196987   -0.6500
     10 O10         2.4707   -1.6902   49.5665 O.2     1  ZINC000429196987   -0.9400
     11 O11         3.1352   -0.5955   47.4498 O.2     1  ZINC000429196987   -0.9400
     12 C12         1.3167    1.5391   48.0298 C.ar    1  ZINC000429196987   -0.0300
     13 C13         0.2559    2.4171   48.1509 C.ar    1  ZINC000429196987   -0.1100
     14 C14        -3.0050    3.3576   51.4622 C.2     1  ZINC000429196987    0.7100
     15 O15        -3.1328    3.6792   52.6277 O.2     1  ZINC000429196987   -0.5800
     16 N16        -3.9826    2.6672   50.8425 N.am    1  ZINC000429196987   -0.7400
     17 C17        -5.1986    2.3028   51.5737 C.3     1  ZINC000429196987    0.1600
     18 C18        -6.2271    3.4305   51.4508 C.3     1  ZINC000429196987   -0.1300
     19 C19        -7.5164    3.0186   52.1649 C.3     1  ZINC000429196987    0.0700
     20 N20        -8.0397    1.7866   51.5610 N.3     1  ZINC000429196987   -0.4700
     21 C21        -9.2789    1.4557   52.0980 C.ar    1  ZINC000429196987    0.2500
     22 C22       -10.4255    2.1321   51.6831 C.ar    1  ZINC000429196987   -0.1300
     23 C23       -11.6361    1.7645   52.2490 C.ar    1  ZINC000429196987   -0.1000
     24 C24       -11.6329    0.7470   53.1927 C.ar    1  ZINC000429196987    0.0200
     25 N25       -10.5004    0.1608   53.5266 N.ar    1  ZINC000429196987   -0.2200
     26 N26        -9.3765    0.4923   53.0027 N.ar    1  ZINC000429196987   -0.2800
     27 C27        -7.0890    0.6773   51.7088 C.3     1  ZINC000429196987    0.0600
     28 C28        -5.7868    1.0193   50.9811 C.3     1  ZINC000429196987   -0.1200
     29 H29        -0.9963    5.5094   51.3410 H       1  ZINC000429196987    0.0600
     30 H30        -0.8200    4.1926   52.5256 H       1  ZINC000429196987    0.0700
     31 H31         0.1411    4.1765   51.0275 H       1  ZINC000429196987    0.0800
     32 H32        -2.6470    2.8247   49.0385 H       1  ZINC000429196987    0.1000
     33 H33        -1.5380    4.1934   48.7834 H       1  ZINC000429196987    0.0900
     34 H34        -1.0113    1.3317   51.0825 H       1  ZINC000429196987    0.1300
     35 H35         0.8745   -0.2365   50.8633 H       1  ZINC000429196987    0.1400
     36 H36         3.9907    0.4518   50.7460 H       1  ZINC000429196987    0.1300
     37 H37         5.1483   -0.3478   49.6556 H       1  ZINC000429196987    0.1300
     38 H38         4.4688    1.2394   49.2230 H       1  ZINC000429196987    0.1300
     39 H39         1.9705    1.5973   47.1721 H       1  ZINC000429196987    0.1400
     40 H40         0.0826    3.1629   47.3893 H       1  ZINC000429196987    0.1400
     41 H41        -3.8811    2.4117   49.9122 H       1  ZINC000429196987    0.4000
     42 H42        -4.9573    2.1416   52.6244 H       1  ZINC000429196987    0.0900
     43 H43        -5.8304    4.3363   51.9095 H       1  ZINC000429196987    0.0800
     44 H44        -6.4380    3.6175   50.3980 H       1  ZINC000429196987    0.0700
     45 H45        -7.3074    2.8452   53.2205 H       1  ZINC000429196987    0.0600
     46 H46        -8.2557    3.8135   52.0670 H       1  ZINC000429196987    0.0900
     47 H47       -10.3719    2.9180   50.9443 H       1  ZINC000429196987    0.1500
     48 H48       -12.5548    2.2556   51.9642 H       1  ZINC000429196987    0.1500
     49 H49       -12.5585    0.4356   53.6540 H       1  ZINC000429196987    0.1700
     50 H50        -6.8821    0.5149   52.7665 H       1  ZINC000429196987    0.0500
     51 H51        -7.5178   -0.2282   51.2795 H       1  ZINC000429196987    0.0900
     52 H52        -5.9908    1.1684   49.9207 H       1  ZINC000429196987    0.0800
     53 H53        -5.0758    0.2024   51.1040 H       1  ZINC000429196987    0.0800
@<TRIPOS>BOND
     1     1     2    1
     2     1    29    1
     3     1    30    1
     4     1    31    1
     5     2     3    1
     6     2    14   am
     7     3     4    1
     8     3    32    1
     9     3    33    1
    10     4    13   ar
    11     4     5   ar
    12     5     6   ar
    13     5    34    1
    14     6     7   ar
    15     6    35    1
    16     7     8    1
    17     7    12   ar
    18     8     9    1
    19     8    10    2
    20     8    11    2
    21     9    36    1
    22     9    37    1
    23     9    38    1
    24    12    13   ar
    25    12    39    1
    26    13    40    1
    27    14    15    2
    28    14    16   am
    29    16    17    1
    30    16    41    1
    31    17    28    1
    32    17    18    1
    33    17    42    1
    34    18    19    1
    35    18    43    1
    36    18    44    1
    37    19    20    1
    38    19    45    1
    39    19    46    1
    40    20    21    1
    41    20    27    1
    42    21    26   ar
    43    21    22   ar
    44    22    23   ar
    45    22    47    1
    46    23    24   ar
    47    23    48    1
    48    24    25   ar
    49    24    49    1
    50    25    26   ar
    51    27    28    1
    52    27    50    1
    53    27    51    1
    54    28    52    1
    55    28    53    1
@<TRIPOS>SUBSTRUCTURE
     1 ZINC000429196987        1 TEMP              0 ****  ****    0 ROOT


##########                                Name:    ZINC000195331548
##########                DOCK_Rotatable_Bonds:                   7
##########                         Heavy_Atoms:                  26
##########                    Molecular_Weight:             378.539
##########                DOCK_Rotatable_Bonds:                   7
##########                       Formal_Charge:          -0.0100004
##########                     HBond_Acceptors:                   7
##########                        HBond_Donors:                   2
##########                         Heavy_Atoms:                  26
##########                          Grid_Score:          -30.846170
##########                     Grid_vdw_energy:          -29.725576
##########                      Grid_es_energy:           -1.120593
##########           Internal_energy_repulsive:           25.971498

@<TRIPOS>MOLECULE
ZINC000195331548
 56 58 1 0 0
SMALL
USER_CHARGES


@<TRIPOS>ATOM
      1 C1         -7.0399    2.7369   56.4206 C.3     1  ZINC000195331548   -0.0800
      2 C2         -5.7272    3.4513   56.2271 C.2     1  ZINC000195331548    0.0700
      3 C3         -5.2818    4.3868   57.0712 C.2     1  ZINC000195331548   -0.2600
      4 S4         -3.7209    4.9514   56.4804 S.3     1  ZINC000195331548    0.1100
      5 C5         -3.8262    3.8795   55.1525 C.2     1  ZINC000195331548    0.0600
      6 C6         -2.7843    3.7389   54.0727 C.3     1  ZINC000195331548   -0.0100
      7 H7         -2.0302    3.0168   54.3857 H       1  ZINC000195331548    0.1100
      8 C8         -2.1204    5.0959   53.8232 C.3     1  ZINC000195331548   -0.1200
      9 C9         -1.1064    4.9575   52.6842 C.3     1  ZINC000195331548   -0.1100
     10 C10        -1.8196    4.4397   51.4331 C.3     1  ZINC000195331548    0.0500
     11 N11        -2.4375    3.1394   51.7231 N.3     1  ZINC000195331548   -0.5200
     12 C12        -3.0130    2.5473   50.5081 C.3     1  ZINC000195331548    0.0400
     13 C13        -1.9083    2.2219   49.5362 C.2     1  ZINC000195331548    0.5100
     14 O14        -2.0979    2.3322   48.3438 O.2     1  ZINC000195331548   -0.4400
     15 N15        -0.7094    1.8082   49.9925 N.am    1  ZINC000195331548   -0.7000
     16 C16         0.2781    1.5156   49.1233 C.2     1  ZINC000195331548    0.6900
     17 O17         0.0872    1.6234   47.9278 O.2     1  ZINC000195331548   -0.5300
     18 N18         1.4774    1.1035   49.5797 N.am    1  ZINC000195331548   -0.7300
     19 C19         2.5514    0.7871   48.6348 C.3     1  ZINC000195331548    0.1700
     20 H20         2.3295    1.2388   47.6679 H       1  ZINC000195331548    0.0900
     21 C21         2.6600   -0.7307   48.4758 C.3     1  ZINC000195331548   -0.1300
     22 C22         2.9715   -1.3647   49.8330 C.3     1  ZINC000195331548   -0.1200
     23 C23         4.2960   -0.8113   50.3625 C.3     1  ZINC000195331548   -0.1200
     24 C24         4.1874    0.7066   50.5215 C.3     1  ZINC000195331548   -0.1100
     25 C25         3.8759    1.3405   49.1643 C.3     1  ZINC000195331548   -0.1000
     26 H26         4.6749    1.1051   48.4614 H       1  ZINC000195331548    0.0900
     27 C27         3.7671    2.8584   49.3234 C.3     1  ZINC000195331548   -0.1500
     28 C28        -3.4488    3.2565   52.7813 C.3     1  ZINC000195331548    0.0600
     29 N29        -4.9241    3.2045   55.2118 N.2     1  ZINC000195331548   -0.4700
     30 H30        -6.8808    1.8404   57.0197 H       1  ZINC000195331548    0.0800
     31 H31        -7.7404    3.3965   56.9328 H       1  ZINC000195331548    0.0800
     32 H32        -7.4480    2.4573   55.4493 H       1  ZINC000195331548    0.0800
     33 H33        -5.7876    4.7328   57.9605 H       1  ZINC000195331548    0.1800
     34 H34        -2.8797    5.8279   53.5479 H       1  ZINC000195331548    0.0600
     35 H35        -1.6098    5.4237   54.7287 H       1  ZINC000195331548    0.0700
     36 H36        -0.6611    5.9296   52.4732 H       1  ZINC000195331548    0.0800
     37 H37        -0.3258    4.2545   52.9753 H       1  ZINC000195331548    0.0800
     38 H38        -1.0977    4.3263   50.6242 H       1  ZINC000195331548    0.0800
     39 H39        -2.5907    5.1497   51.1346 H       1  ZINC000195331548    0.0400
     40 H40        -3.7027    3.2563   50.0501 H       1  ZINC000195331548    0.1200
     41 H41        -3.5493    1.6345   50.7676 H       1  ZINC000195331548    0.0700
     42 H42        -0.5575    1.7211   50.9465 H       1  ZINC000195331548    0.4100
     43 H43         1.6294    1.0164   50.5337 H       1  ZINC000195331548    0.4000
     44 H44         3.4591   -0.9660   47.7728 H       1  ZINC000195331548    0.0700
     45 H45         1.7165   -1.1250   48.0985 H       1  ZINC000195331548    0.0700
     46 H46         3.0490   -2.4461   49.7196 H       1  ZINC000195331548    0.0600
     47 H47         2.1725   -1.1294   50.5359 H       1  ZINC000195331548    0.0600
     48 H48         4.5179   -1.2630   51.3293 H       1  ZINC000195331548    0.0600
     49 H49         5.0951   -1.0466   49.6595 H       1  ZINC000195331548    0.0600
     50 H50         3.3882    0.9419   51.2245 H       1  ZINC000195331548    0.0600
     51 H51         5.1310    1.1009   50.8987 H       1  ZINC000195331548    0.0700
     52 H52         2.9681    3.0938   50.0263 H       1  ZINC000195331548    0.0500
     53 H53         4.7108    3.2527   49.7006 H       1  ZINC000195331548    0.0600
     54 H54         3.5452    3.3101   48.3565 H       1  ZINC000195331548    0.0600
     55 H55        -4.2124    3.9721   52.4765 H       1  ZINC000195331548    0.0400
     56 H56        -3.9103    2.2837   52.9518 H       1  ZINC000195331548    0.0900
@<TRIPOS>BOND
     1     1     2    1
     2     1    30    1
     3     1    31    1
     4     1    32    1
     5     2    29    1
     6     2     3    2
     7     3     4    1
     8     3    33    1
     9     4     5    1
    10     5     6    1
    11     5    29    2
    12     6     7    1
    13     6    28    1
    14     6     8    1
    15     8     9    1
    16     8    34    1
    17     8    35    1
    18     9    10    1
    19     9    36    1
    20     9    37    1
    21    10    11    1
    22    10    38    1
    23    10    39    1
    24    11    12    1
    25    11    28    1
    26    12    13    1
    27    12    40    1
    28    12    41    1
    29    13    14    2
    30    13    15   am
    31    15    16   am
    32    15    42    1
    33    16    17    2
    34    16    18   am
    35    18    19    1
    36    18    43    1
    37    19    20    1
    38    19    25    1
    39    19    21    1
    40    21    22    1
    41    21    44    1
    42    21    45    1
    43    22    23    1
    44    22    46    1
    45    22    47    1
    46    23    24    1
    47    23    48    1
    48    23    49    1
    49    24    25    1
    50    24    50    1
    51    24    51    1
    52    25    26    1
    53    25    27    1
    54    27    52    1
    55    27    53    1
    56    27    54    1
    57    28    55    1
    58    28    56    1
@<TRIPOS>SUBSTRUCTURE
     1 ZINC000195331548        1 TEMP              0 ****  ****    0 ROOT


##########                                Name:    ZINC001328997126
##########                DOCK_Rotatable_Bonds:                   7
##########                         Heavy_Atoms:                  26
##########                    Molecular_Weight:             388.488
##########                DOCK_Rotatable_Bonds:                   7
##########                       Formal_Charge:           0.0299993
##########                     HBond_Acceptors:                  10
##########                        HBond_Donors:                   1
##########                         Heavy_Atoms:                  26
##########                          Grid_Score:          -30.814850
##########                     Grid_vdw_energy:          -29.264484
##########                      Grid_es_energy:           -1.550365
##########           Internal_energy_repulsive:            9.130046

@<TRIPOS>MOLECULE
ZINC001328997126
 54 56 1 0 0
SMALL
USER_CHARGES


@<TRIPOS>ATOM
      1 C1          2.3402    3.8848   48.2333 C.3     1  ZINC001328997126   -0.1700
      2 C2          1.5322    2.6703   47.7717 C.3     1  ZINC001328997126    0.1400
      3 N3          0.1748    2.7510   48.3168 N.am    1  ZINC001328997126   -0.6300
      4 C4         -0.2079    3.4350   49.5615 C.3     1  ZINC001328997126    0.0700
      5 C5         -1.7296    3.2098   49.6510 C.3     1  ZINC001328997126    0.0700
      6 H6         -2.2585    4.1628   49.6337 H       1  ZINC001328997126    0.1200
      7 C7         -2.0823    2.4252   50.9163 C.3     1  ZINC001328997126    0.0500
      8 N8         -3.2079    3.0771   51.5989 N.3     1  ZINC001328997126   -0.5300
      9 C9         -3.0500    3.0086   53.0583 C.3     1  ZINC001328997126    0.0500
     10 C10        -4.1984    3.7659   53.7292 C.3     1  ZINC001328997126    0.0600
     11 N11        -5.4791    3.1774   53.3126 N.3     1  ZINC001328997126   -0.5200
     12 C12        -6.6047    3.8294   53.9952 C.3     1  ZINC001328997126    0.0400
     13 C13        -7.9019    3.2634   53.4777 C.2     1  ZINC001328997126    0.5200
     14 O14        -8.7153    3.9937   52.9521 O.2     1  ZINC001328997126   -0.5100
     15 N15        -8.1583    1.9459   53.5989 N.am    1  ZINC001328997126   -0.7300
     16 C16        -9.4202    1.3960   53.0973 C.3     1  ZINC001328997126    0.1600
     17 H17        -9.6537    1.8389   52.1291 H       1  ZINC001328997126    0.1100
     18 C18        -9.2976   -0.1309   52.9515 C.3     1  ZINC001328997126   -0.1400
     19 C19       -10.7353   -0.6737   52.7453 C.3     1  ZINC001328997126   -0.5800
     20 S20       -11.7048    0.2922   53.9646 S.o2    1  ZINC001328997126    2.4000
     21 O21       -12.9183    0.7248   53.3648 O.2     1  ZINC001328997126   -0.9300
     22 O22       -11.7366   -0.4071   55.2012 O.2     1  ZINC001328997126   -0.9300
     23 C23       -10.5535    1.7052   54.0957 C.3     1  ZINC001328997126   -0.6100
     24 C24        -5.6370    3.2460   51.8532 C.3     1  ZINC001328997126    0.0500
     25 C25        -4.4885    2.4888   51.1824 C.3     1  ZINC001328997126    0.0600
     26 O26        -2.0416    2.4308   48.4599 O.3     1  ZINC001328997126   -0.3100
     27 C27        -0.9216    2.2186   47.7599 C.2     1  ZINC001328997126    0.6400
     28 O28        -0.8992    1.5931   46.7184 O.2     1  ZINC001328997126   -0.5200
     29 H29         1.8599    4.7968   47.8787 H       1  ZINC001328997126    0.0600
     30 H30         2.3861    3.8981   49.3222 H       1  ZINC001328997126    0.0600
     31 H31         3.3501    3.8248   47.8277 H       1  ZINC001328997126    0.0700
     32 H32         1.4862    2.6570   46.6827 H       1  ZINC001328997126    0.0900
     33 H33         2.0125    1.7583   48.1262 H       1  ZINC001328997126    0.0900
     34 H34         0.2966    2.9848   50.4165 H       1  ZINC001328997126    0.0900
     35 H35         0.0187    4.4993   49.4988 H       1  ZINC001328997126    0.0900
     36 H36        -2.3616    1.4069   50.6462 H       1  ZINC001328997126    0.0900
     37 H37        -1.2190    2.4010   51.5812 H       1  ZINC001328997126    0.0600
     38 H38        -3.0662    1.9665   53.3772 H       1  ZINC001328997126    0.0500
     39 H39        -2.1003    3.4616   53.3430 H       1  ZINC001328997126    0.0900
     40 H40        -4.0993    3.6918   54.8121 H       1  ZINC001328997126    0.0800
     41 H41        -4.1659    4.8139   53.4314 H       1  ZINC001328997126    0.0500
     42 H42        -6.5323    3.6500   55.0679 H       1  ZINC001328997126    0.1100
     43 H43        -6.5740    4.9020   53.8033 H       1  ZINC001328997126    0.0700
     44 H44        -7.5073    1.3617   54.0182 H       1  ZINC001328997126    0.4100
     45 H45        -8.6790   -0.3750   52.0879 H       1  ZINC001328997126    0.1100
     46 H46        -8.8632   -0.5584   53.8553 H       1  ZINC001328997126    0.0900
     47 H47       -11.0819   -0.4754   51.7311 H       1  ZINC001328997126    0.1400
     48 H48       -10.7825   -1.7392   52.9702 H       1  ZINC001328997126    0.1400
     49 H49       -10.1579    1.7784   55.1088 H       1  ZINC001328997126    0.1400
     50 H50       -11.0571    2.6309   53.8173 H       1  ZINC001328997126    0.1500
     51 H51        -6.5866    2.7929   51.5685 H       1  ZINC001328997126    0.1000
     52 H52        -5.6208    4.2882   51.5343 H       1  ZINC001328997126    0.0400
     53 H53        -4.5877    2.5628   50.0994 H       1  ZINC001328997126    0.0800
     54 H54        -4.5211    1.4406   51.4801 H       1  ZINC001328997126    0.0500
@<TRIPOS>BOND
     1     1     2    1
     2     1    29    1
     3     1    30    1
     4     1    31    1
     5     2     3    1
     6     2    32    1
     7     2    33    1
     8     3    27   am
     9     3     4    1
    10     4     5    1
    11     4    34    1
    12     4    35    1
    13     5     6    1
    14     5     7    1
    15     5    26    1
    16     7     8    1
    17     7    36    1
    18     7    37    1
    19     8    25    1
    20     8     9    1
    21     9    10    1
    22     9    38    1
    23     9    39    1
    24    10    11    1
    25    10    40    1
    26    10    41    1
    27    11    12    1
    28    11    24    1
    29    12    13    1
    30    12    42    1
    31    12    43    1
    32    13    14    2
    33    13    15   am
    34    15    16    1
    35    15    44    1
    36    16    17    1
    37    16    23    1
    38    16    18    1
    39    18    19    1
    40    18    45    1
    41    18    46    1
    42    19    20    1
    43    19    47    1
    44    19    48    1
    45    20    21    2
    46    20    22    2
    47    20    23    1
    48    23    49    1
    49    23    50    1
    50    24    25    1
    51    24    51    1
    52    24    52    1
    53    25    53    1
    54    25    54    1
    55    26    27    1
    56    27    28    2
@<TRIPOS>SUBSTRUCTURE
     1 ZINC001328997126        1 TEMP              0 ****  ****    0 ROOT


##########                                Name:    ZINC000981048968
##########                DOCK_Rotatable_Bonds:                   7
##########                         Heavy_Atoms:                  25
##########                    Molecular_Weight:             344.414
##########                DOCK_Rotatable_Bonds:                   7
##########                       Formal_Charge:                0.02
##########                     HBond_Acceptors:                   7
##########                        HBond_Donors:                   2
##########                         Heavy_Atoms:                  25
##########                          Grid_Score:          -30.807400
##########                     Grid_vdw_energy:          -26.954308
##########                      Grid_es_energy:           -3.853092
##########           Internal_energy_repulsive:            3.700487

@<TRIPOS>MOLECULE
ZINC000981048968
 49 52 1 0 0
SMALL
USER_CHARGES


@<TRIPOS>ATOM
      1 C1        -12.1307    2.2096   38.8951 C.3     1  ZINC000981048968   -0.0800
      2 C2        -12.6832    1.7121   40.2060 C.2     1  ZINC000981048968   -0.0100
      3 C3        -12.8634    2.4573   41.3072 C.2     1  ZINC000981048968   -0.1600
      4 C4        -13.4194    1.5505   42.3221 C.2     1  ZINC000981048968   -0.2300
      5 C5        -13.7941    1.8864   43.7073 C.2     1  ZINC000981048968    0.5900
      6 O6        -14.4943    1.1268   44.3490 O.2     1  ZINC000981048968   -0.5300
      7 N7        -13.3609    3.0354   44.2629 N.am    1  ZINC000981048968   -0.7300
      8 C8        -13.7348    3.3701   45.6393 C.3     1  ZINC000981048968    0.1500
      9 H9        -14.7046    2.9290   45.8699 H       1  ZINC000981048968    0.0900
     10 C10       -13.8173    4.8905   45.7899 C.3     1  ZINC000981048968   -0.1300
     11 C11       -14.2078    5.2401   47.2273 C.3     1  ZINC000981048968   -0.1200
     12 C12       -13.1547    4.6885   48.1905 C.3     1  ZINC000981048968   -0.1100
     13 C13       -13.0722    3.1681   48.0398 C.3     1  ZINC000981048968    0.1000
     14 H14       -14.0419    2.7271   48.2703 H       1  ZINC000981048968    0.0500
     15 N15       -12.0611    2.6386   48.9645 N.3     1  ZINC000981048968   -0.6800
     16 C16       -12.6850    1.8287   50.0194 C.3     1  ZINC000981048968    0.1500
     17 C17       -11.6123    1.2049   50.8745 C.2     1  ZINC000981048968    0.1800
     18 N18       -11.6064   -0.0095   51.3366 N.2     1  ZINC000981048968   -0.3800
     19 O19       -10.6030   -0.2055   51.9894 O.3     1  ZINC000981048968    0.0800
     20 C20        -9.8506    0.8989   52.0062 C.2     1  ZINC000981048968    0.2100
     21 C21        -8.5265    1.0723   52.7045 C.3     1  ZINC000981048968   -0.0800
     22 C22        -7.4640    1.9211   52.0034 C.3     1  ZINC000981048968   -0.1600
     23 C23        -8.1861    2.4654   53.2377 C.3     1  ZINC000981048968   -0.1500
     24 N24       -10.4824    1.8013   51.2949 N.2     1  ZINC000981048968   -0.4600
     25 C25       -12.6817    2.8186   46.6024 C.3     1  ZINC000981048968   -0.1300
     26 C26       -13.5169    0.3336   41.7134 C.2     1  ZINC000981048968    0.0200
     27 O27       -13.0789    0.4543   40.4565 O.3     1  ZINC000981048968   -0.1700
     28 H28       -12.1009    1.3888   38.1785 H       1  ZINC000981048968    0.0800
     29 H29       -12.7690    3.0049   38.5101 H       1  ZINC000981048968    0.0900
     30 H30       -11.1227    2.5949   39.0485 H       1  ZINC000981048968    0.0900
     31 H31       -12.6445    3.5084   41.4242 H       1  ZINC000981048968    0.1600
     32 H32       -12.8014    3.6406   43.7515 H       1  ZINC000981048968    0.4000
     33 H33       -12.8475    5.3316   45.5594 H       1  ZINC000981048968    0.0700
     34 H34       -14.5676    5.2834   45.1039 H       1  ZINC000981048968    0.0700
     35 H35       -14.2666    6.3232   47.3347 H       1  ZINC000981048968    0.0700
     36 H36       -15.1775    4.7989   47.4580 H       1  ZINC000981048968    0.0600
     37 H37       -12.1849    5.1295   47.9599 H       1  ZINC000981048968    0.0700
     38 H38       -13.4329    4.9375   49.2146 H       1  ZINC000981048968    0.0700
     39 H39       -11.3599    2.1087   48.4688 H       1  ZINC000981048968    0.3500
     40 H40       -13.3192    2.4639   50.6377 H       1  ZINC000981048968    0.1100
     41 H41       -13.2896    1.0438   49.5650 H       1  ZINC000981048968    0.0600
     42 H42        -8.1843    0.2144   53.2833 H       1  ZINC000981048968    0.1500
     43 H43        -6.4226    1.6217   52.1209 H       1  ZINC000981048968    0.1200
     44 H44        -7.7227    2.3541   51.0371 H       1  ZINC000981048968    0.1100
     45 H45        -8.9199    3.2564   53.0833 H       1  ZINC000981048968    0.1000
     46 H46        -7.6196    2.5240   54.1670 H       1  ZINC000981048968    0.1200
     47 H47       -12.6229    1.7355   46.4950 H       1  ZINC000981048968    0.0700
     48 H48       -11.7120    3.2596   46.3718 H       1  ZINC000981048968    0.0800
     49 H49       -13.8882   -0.5726   42.1688 H       1  ZINC000981048968    0.2100
@<TRIPOS>BOND
     1     1     2    1
     2     1    28    1
     3     1    29    1
     4     1    30    1
     5     2    27    1
     6     2     3    2
     7     3     4    1
     8     3    31    1
     9     4     5    1
    10     4    26    2
    11     5     6    2
    12     5     7   am
    13     7     8    1
    14     7    32    1
    15     8     9    1
    16     8    25    1
    17     8    10    1
    18    10    11    1
    19    10    33    1
    20    10    34    1
    21    11    12    1
    22    11    35    1
    23    11    36    1
    24    12    13    1
    25    12    37    1
    26    12    38    1
    27    13    14    1
    28    13    15    1
    29    13    25    1
    30    15    16    1
    31    15    39    1
    32    16    17    1
    33    16    40    1
    34    16    41    1
    35    17    24    1
    36    17    18    2
    37    18    19    1
    38    19    20    1
    39    20    21    1
    40    20    24    2
    41    21    23    1
    42    21    22    1
    43    21    42    1
    44    22    23    1
    45    22    43    1
    46    22    44    1
    47    23    45    1
    48    23    46    1
    49    25    47    1
    50    25    48    1
    51    26    27    1
    52    26    49    1
@<TRIPOS>SUBSTRUCTURE
     1 ZINC000981048968        1 TEMP              0 ****  ****    0 ROOT


##########                                Name:    ZINC000489986384
##########                DOCK_Rotatable_Bonds:                  11
##########                         Heavy_Atoms:                  31
##########                    Molecular_Weight:             415.492
##########                DOCK_Rotatable_Bonds:                  11
##########                       Formal_Charge:          -0.0499997
##########                     HBond_Acceptors:                   6
##########                        HBond_Donors:                   2
##########                         Heavy_Atoms:                  31
##########                          Grid_Score:          -30.795116
##########                     Grid_vdw_energy:          -30.005373
##########                      Grid_es_energy:           -0.789743
##########           Internal_energy_repulsive:           11.932155

@<TRIPOS>MOLECULE
ZINC000489986384
 56 59 1 0 0
SMALL
USER_CHARGES


@<TRIPOS>ATOM
      1 O1         -9.5399    0.3465   56.6016 O.2     1  ZINC000489986384   -0.5000
      2 C2        -10.5123   -0.3565   56.4254 C.2     1  ZINC000489986384    0.4900
      3 C3        -10.9657   -1.3008   57.5088 C.3     1  ZINC000489986384    0.0900
      4 N4        -11.1610   -0.5563   58.7553 N.pl3   1  ZINC000489986384   -0.4700
      5 C5        -10.2807   -0.4925   59.8169 C.ar    1  ZINC000489986384    0.0700
      6 C6         -9.0323   -1.0428   60.0718 C.ar    1  ZINC000489986384   -0.1100
      7 C7         -8.3996   -0.7758   61.2677 C.ar    1  ZINC000489986384   -0.0900
      8 C8         -9.0026    0.0377   62.2159 C.ar    1  ZINC000489986384   -0.1300
      9 C9        -10.2314    0.5876   61.9824 C.ar    1  ZINC000489986384   -0.0600
     10 C10       -10.8910    0.3319   60.7777 C.ar    1  ZINC000489986384    0.0500
     11 N11       -12.0865    0.7197   60.2638 N.2     1  ZINC000489986384   -0.4600
     12 C12       -12.2409    0.2052   59.0788 C.2     1  ZINC000489986384    0.2800
     13 C13       -13.4456    0.4132   58.1977 C.3     1  ZINC000489986384    0.1400
     14 O14       -14.6323    0.1102   58.9339 O.3     1  ZINC000489986384   -0.3000
     15 C15       -15.1480   -1.1385   58.7863 C.ar    1  ZINC000489986384    0.1300
     16 C16       -14.9786   -2.0831   59.7880 C.ar    1  ZINC000489986384   -0.2100
     17 C17       -15.5043   -3.3515   59.6357 C.ar    1  ZINC000489986384   -0.0800
     18 C18       -16.1983   -3.6801   58.4859 C.ar    1  ZINC000489986384   -0.1600
     19 C19       -16.3681   -2.7406   57.4859 C.ar    1  ZINC000489986384   -0.0800
     20 C20       -15.8497   -1.4688   57.6360 C.ar    1  ZINC000489986384   -0.1500
     21 N21       -11.1909   -0.2893   55.2628 N.am    1  ZINC000489986384   -0.7300
     22 C22       -10.7502    0.6287   54.2097 C.3     1  ZINC000489986384    0.1300
     23 C23        -9.7539   -0.0858   53.2944 C.3     1  ZINC000489986384   -0.0600
     24 H24        -9.1234   -0.7468   53.8892 H       1  ZINC000489986384    0.0900
     25 C25       -10.5165   -0.9084   52.2540 C.3     1  ZINC000489986384    0.0800
     26 O26       -11.2210   -0.0293   51.3748 O.3     1  ZINC000489986384   -0.5700
     27 C27        -8.8929    0.9346   52.5953 C.ar    1  ZINC000489986384   -0.0700
     28 C28        -9.3953    2.1934   52.3240 C.ar    1  ZINC000489986384   -0.1100
     29 C29        -8.6056    3.1294   51.6826 C.ar    1  ZINC000489986384   -0.1200
     30 C30        -7.3133    2.8065   51.3130 C.ar    1  ZINC000489986384   -0.1200
     31 C31        -6.8105    1.5479   51.5851 C.ar    1  ZINC000489986384   -0.1200
     32 C32        -7.5988    0.6134   52.2302 C.ar    1  ZINC000489986384   -0.1100
     33 H33       -11.9052   -1.7683   57.2137 H       1  ZINC000489986384    0.1200
     34 H34       -10.2088   -2.0705   57.6602 H       1  ZINC000489986384    0.1200
     35 H35        -8.5587   -1.6772   59.3373 H       1  ZINC000489986384    0.1200
     36 H36        -7.4282   -1.2033   61.4675 H       1  ZINC000489986384    0.1300
     37 H37        -8.4958    0.2380   63.1484 H       1  ZINC000489986384    0.1300
     38 H38       -10.6921    1.2188   62.7279 H       1  ZINC000489986384    0.1300
     39 H39       -13.4786    1.4511   57.8663 H       1  ZINC000489986384    0.0800
     40 H40       -13.3789   -0.2432   57.3301 H       1  ZINC000489986384    0.1000
     41 H41       -14.4359   -1.8272   60.6860 H       1  ZINC000489986384    0.1300
     42 H42       -15.3726   -4.0873   60.4153 H       1  ZINC000489986384    0.1300
     43 H43       -16.6082   -4.6724   58.3687 H       1  ZINC000489986384    0.1200
     44 H44       -16.9104   -2.9996   56.5885 H       1  ZINC000489986384    0.1300
     45 H45       -15.9827   -0.7353   56.8546 H       1  ZINC000489986384    0.1300
     46 H46       -11.9709   -0.8488   55.1235 H       1  ZINC000489986384    0.4000
     47 H47       -11.6118    0.9527   53.6260 H       1  ZINC000489986384    0.0800
     48 H48       -10.2702    1.4968   54.6616 H       1  ZINC000489986384    0.0800
     49 H49        -9.8123   -1.5098   51.6789 H       1  ZINC000489986384    0.0500
     50 H50       -11.2266   -1.5638   52.7583 H       1  ZINC000489986384    0.0500
     51 H51       -11.7570   -0.4839   50.7105 H       1  ZINC000489986384    0.3800
     52 H52       -10.4049    2.4456   52.6128 H       1  ZINC000489986384    0.1200
     53 H53        -8.9983    4.1127   51.4701 H       1  ZINC000489986384    0.1200
     54 H54        -6.6965    3.5375   50.8114 H       1  ZINC000489986384    0.1200
     55 H55        -5.8010    1.2956   51.2961 H       1  ZINC000489986384    0.1200
     56 H56        -7.2060   -0.3700   52.4428 H       1  ZINC000489986384    0.1200
@<TRIPOS>BOND
     1     1     2    2
     2     2     3    1
     3     2    21   am
     4     3     4    1
     5     3    33    1
     6     3    34    1
     7     4    12    1
     8     4     5    1
     9     5    10   ar
    10     5     6   ar
    11     6     7   ar
    12     6    35    1
    13     7     8   ar
    14     7    36    1
    15     8     9   ar
    16     8    37    1
    17     9    10   ar
    18     9    38    1
    19    10    11    1
    20    11    12    2
    21    12    13    1
    22    13    14    1
    23    13    39    1
    24    13    40    1
    25    14    15    1
    26    15    20   ar
    27    15    16   ar
    28    16    17   ar
    29    16    41    1
    30    17    18   ar
    31    17    42    1
    32    18    19   ar
    33    18    43    1
    34    19    20   ar
    35    19    44    1
    36    20    45    1
    37    21    22    1
    38    21    46    1
    39    22    23    1
    40    22    47    1
    41    22    48    1
    42    23    24    1
    43    23    25    1
    44    23    27    1
    45    25    26    1
    46    25    49    1
    47    25    50    1
    48    26    51    1
    49    27    32   ar
    50    27    28   ar
    51    28    29   ar
    52    28    52    1
    53    29    30   ar
    54    29    53    1
    55    30    31   ar
    56    30    54    1
    57    31    32   ar
    58    31    55    1
    59    32    56    1
@<TRIPOS>SUBSTRUCTURE
     1 ZINC000489986384        1 TEMP              0 ****  ****    0 ROOT


##########                                Name:    ZINC000487792031
##########                DOCK_Rotatable_Bonds:                  12
##########                         Heavy_Atoms:                  29
##########                    Molecular_Weight:             414.569
##########                DOCK_Rotatable_Bonds:                  12
##########                       Formal_Charge:          -0.0100001
##########                     HBond_Acceptors:                   6
##########                        HBond_Donors:                   1
##########                         Heavy_Atoms:                  29
##########                          Grid_Score:          -30.794483
##########                     Grid_vdw_energy:          -30.640835
##########                      Grid_es_energy:           -0.153648
##########           Internal_energy_repulsive:           18.151390

@<TRIPOS>MOLECULE
ZINC000487792031
 59 60 1 0 0
SMALL
USER_CHARGES


@<TRIPOS>ATOM
      1 C1         -9.5541   -1.0938   59.9071 C.2     1  ZINC000487792031   -0.1900
      2 C2        -10.2571   -0.9555   58.8104 C.2     1  ZINC000487792031   -0.1500
      3 C3        -10.6694   -2.1714   58.0213 C.3     1  ZINC000487792031   -0.0900
      4 C4        -10.8902   -1.7796   56.5590 C.3     1  ZINC000487792031   -0.0900
      5 C5        -12.2097   -1.0160   56.4292 C.3     1  ZINC000487792031   -0.0700
      6 H6        -12.1919   -0.1458   57.0855 H       1  ZINC000487792031    0.1100
      7 C7        -12.3912   -0.5656   55.0026 C.2     1  ZINC000487792031    0.5200
      8 O8        -13.5069   -0.4374   54.5445 O.2     1  ZINC000487792031   -0.5300
      9 N9        -11.3139   -0.3056   54.2357 N.am    1  ZINC000487792031   -0.7200
     10 C10       -11.4903    0.1305   52.8484 C.3     1  ZINC000487792031    0.1500
     11 C11       -10.2436    0.8369   52.3814 C.ar    1  ZINC000487792031   -0.0500
     12 C12       -10.2996    2.1690   52.0165 C.ar    1  ZINC000487792031   -0.1200
     13 C13        -9.1560    2.8169   51.5882 C.ar    1  ZINC000487792031   -0.0200
     14 C14        -7.9564    2.1328   51.5252 C.ar    1  ZINC000487792031   -0.6700
     15 S15        -6.4990    2.9585   50.9787 S.o2    1  ZINC000487792031    2.6900
     16 O16        -6.0442    2.2530   49.8321 O.2     1  ZINC000487792031   -0.9500
     17 O17        -6.8044    4.3462   50.9670 O.2     1  ZINC000487792031   -0.9500
     18 N18        -5.3461    2.7433   52.1478 N.am    1  ZINC000487792031   -1.0000
     19 C19        -5.5828    3.2314   53.5087 C.3     1  ZINC000487792031    0.1200
     20 C20        -4.6465    4.4062   53.7990 C.3     1  ZINC000487792031   -0.1800
     21 C21        -4.0895    2.0647   51.8212 C.3     1  ZINC000487792031    0.1100
     22 C22        -3.2005    3.0037   51.0033 C.3     1  ZINC000487792031   -0.1800
     23 C23        -7.9002    0.8009   51.8913 C.ar    1  ZINC000487792031   -0.0200
     24 C24        -9.0431    0.1541   52.3234 C.ar    1  ZINC000487792031   -0.1200
     25 C25       -13.3523   -1.9172   56.8207 C.ar    1  ZINC000487792031   -0.0800
     26 C26       -14.0756   -1.6569   57.9696 C.ar    1  ZINC000487792031   -0.1100
     27 C27       -15.1237   -2.4837   58.3286 C.ar    1  ZINC000487792031   -0.1100
     28 C28       -15.4487   -3.5704   57.5385 C.ar    1  ZINC000487792031   -0.1200
     29 C29       -14.7261   -3.8301   56.3891 C.ar    1  ZINC000487792031   -0.1200
     30 C30       -13.6807   -3.0009   56.0278 C.ar    1  ZINC000487792031   -0.1100
     31 H31        -9.2586   -0.2224   60.4727 H       1  ZINC000487792031    0.1000
     32 H32        -9.2736   -2.0794   60.2480 H       1  ZINC000487792031    0.1000
     33 H33       -10.5413    0.0299   58.4719 H       1  ZINC000487792031    0.1100
     34 H34        -9.8853   -2.9262   58.0809 H       1  ZINC000487792031    0.0700
     35 H35       -11.5944   -2.5753   58.4329 H       1  ZINC000487792031    0.0700
     36 H36       -10.0691   -1.1455   56.2247 H       1  ZINC000487792031    0.0800
     37 H37       -10.9287   -2.6786   55.9439 H       1  ZINC000487792031    0.0700
     38 H38       -10.4216   -0.4071   54.6025 H       1  ZINC000487792031    0.4000
     39 H39       -11.6748   -0.7375   52.2153 H       1  ZINC000487792031    0.0800
     40 H40       -12.3387    0.8120   52.7868 H       1  ZINC000487792031    0.0800
     41 H41       -11.2367    2.7035   52.0658 H       1  ZINC000487792031    0.1400
     42 H42        -9.1998    3.8575   51.3025 H       1  ZINC000487792031    0.1400
     43 H43        -6.6178    3.5601   53.6019 H       1  ZINC000487792031    0.0800
     44 H44        -5.3908    2.4291   54.2210 H       1  ZINC000487792031    0.0800
     45 H45        -3.6114    4.0775   53.7059 H       1  ZINC000487792031    0.0600
     46 H46        -4.8385    5.2085   53.0868 H       1  ZINC000487792031    0.0600
     47 H47        -4.8226    4.7694   54.8115 H       1  ZINC000487792031    0.0700
     48 H48        -3.5757    1.7884   52.7420 H       1  ZINC000487792031    0.0900
     49 H49        -4.3015    1.1672   51.2401 H       1  ZINC000487792031    0.0900
     50 H50        -3.7143    3.2800   50.0825 H       1  ZINC000487792031    0.0600
     51 H51        -2.9885    3.9011   51.5843 H       1  ZINC000487792031    0.0600
     52 H52        -2.2656    2.4988   50.7603 H       1  ZINC000487792031    0.0700
     53 H53        -6.9630    0.2665   51.8425 H       1  ZINC000487792031    0.1400
     54 H54        -8.9991   -0.8865   52.6094 H       1  ZINC000487792031    0.1400
     55 H55       -13.8216   -0.8079   58.5868 H       1  ZINC000487792031    0.1200
     56 H56       -15.6884   -2.2807   59.2266 H       1  ZINC000487792031    0.1200
     57 H57       -16.2672   -4.2167   57.8194 H       1  ZINC000487792031    0.1200
     58 H58       -14.9798   -4.6793   55.7720 H       1  ZINC000487792031    0.1200
     59 H59       -13.1160   -3.2038   55.1297 H       1  ZINC000487792031    0.1200
@<TRIPOS>BOND
     1     1     2    2
     2     1    31    1
     3     1    32    1
     4     2     3    1
     5     2    33    1
     6     3     4    1
     7     3    34    1
     8     3    35    1
     9     4     5    1
    10     4    36    1
    11     4    37    1
    12     5     6    1
    13     5     7    1
    14     5    25    1
    15     7     8    2
    16     7     9   am
    17     9    10    1
    18     9    38    1
    19    10    11    1
    20    10    39    1
    21    10    40    1
    22    11    24   ar
    23    11    12   ar
    24    12    13   ar
    25    12    41    1
    26    13    14   ar
    27    13    42    1
    28    14    15    1
    29    14    23   ar
    30    15    16    2
    31    15    17    2
    32    15    18   am
    33    18    19    1
    34    18    21    1
    35    19    20    1
    36    19    43    1
    37    19    44    1
    38    20    45    1
    39    20    46    1
    40    20    47    1
    41    21    22    1
    42    21    48    1
    43    21    49    1
    44    22    50    1
    45    22    51    1
    46    22    52    1
    47    23    24   ar
    48    23    53    1
    49    24    54    1
    50    25    30   ar
    51    25    26   ar
    52    26    27   ar
    53    26    55    1
    54    27    28   ar
    55    27    56    1
    56    28    29   ar
    57    28    57    1
    58    29    30   ar
    59    29    58    1
    60    30    59    1
@<TRIPOS>SUBSTRUCTURE
     1 ZINC000487792031        1 TEMP              0 ****  ****    0 ROOT


##########                                Name:    ZINC000509132103
##########                DOCK_Rotatable_Bonds:                   7
##########                         Heavy_Atoms:                  29
##########                    Molecular_Weight:              405.52
##########                DOCK_Rotatable_Bonds:                   7
##########                       Formal_Charge:          -0.0499998
##########                     HBond_Acceptors:                   6
##########                        HBond_Donors:                   0
##########                         Heavy_Atoms:                  29
##########                          Grid_Score:          -30.789072
##########                     Grid_vdw_energy:          -31.060471
##########                      Grid_es_energy:            0.271398
##########           Internal_energy_repulsive:           13.620296

@<TRIPOS>MOLECULE
ZINC000509132103
 52 55 1 0 0
SMALL
USER_CHARGES


@<TRIPOS>ATOM
      1 C1          3.3637    0.1770   46.3520 C.3     1  ZINC000509132103    0.0300
      2 O2          2.2730    1.0470   46.0427 O.3     1  ZINC000509132103   -0.3000
      3 C3          1.3792    1.2907   47.0342 C.ar    1  ZINC000509132103    0.2700
      4 C4          0.2730    2.1014   46.7943 C.ar    1  ZINC000509132103   -0.1300
      5 C5         -0.6111    2.3199   47.8402 C.ar    1  ZINC000509132103   -0.0700
      6 C6         -0.3391    1.7179   49.0600 C.ar    1  ZINC000509132103    0.0500
      7 C7         -1.2701    1.9246   50.2268 C.3     1  ZINC000509132103   -0.0500
      8 S8         -1.8433    3.6455   50.2456 S.3     1  ZINC000509132103   -0.1500
      9 C9         -3.0074    3.6728   51.6366 C.3     1  ZINC000509132103   -0.1300
     10 C10        -4.3546    3.1811   51.1737 C.2     1  ZINC000509132103    0.5400
     11 O11        -4.4562    2.5959   50.1163 O.2     1  ZINC000509132103   -0.5100
     12 N12        -5.4468    3.3917   51.9350 N.am    1  ZINC000509132103   -0.6100
     13 C13        -5.3575    4.0959   53.2187 C.3     1  ZINC000509132103    0.1500
     14 C14        -6.1704    3.3640   54.2569 C.ar    1  ZINC000509132103   -0.1000
     15 C15        -6.0141    3.7387   55.5840 C.ar    1  ZINC000509132103   -0.1100
     16 C16        -6.7381    3.1130   56.5785 C.ar    1  ZINC000509132103   -0.1200
     17 C17        -7.6265    2.1066   56.2495 C.ar    1  ZINC000509132103   -0.1200
     18 C18        -7.7798    1.7306   54.9311 C.ar    1  ZINC000509132103   -0.1100
     19 C19        -7.0479    2.3546   53.9285 C.ar    1  ZINC000509132103   -0.0600
     20 C20        -7.2476    1.8732   52.5155 C.3     1  ZINC000509132103   -0.0200
     21 H21        -6.6799    0.9549   52.3661 H       1  ZINC000509132103    0.1000
     22 C22        -8.7111    1.5934   52.2894 C.ar    1  ZINC000509132103   -0.0800
     23 C23        -9.6298    2.6242   52.3541 C.ar    1  ZINC000509132103   -0.1100
     24 C24       -10.9722    2.3675   52.1467 C.ar    1  ZINC000509132103   -0.1200
     25 C25       -11.3958    1.0801   51.8742 C.ar    1  ZINC000509132103   -0.1200
     26 C26       -10.4768    0.0496   51.8088 C.ar    1  ZINC000509132103   -0.1200
     27 C27        -9.1339    0.3069   52.0118 C.ar    1  ZINC000509132103   -0.1100
     28 C28        -6.7780    2.9295   51.5084 C.3     1  ZINC000509132103    0.1200
     29 N29         0.7339    0.9643   49.1980 N.ar    1  ZINC000509132103   -0.1900
     30 N30         1.5524    0.7544   48.2318 N.ar    1  ZINC000509132103   -0.3000
     31 H31         2.9778   -0.7995   46.6450 H       1  ZINC000509132103    0.0600
     32 H32         4.0011    0.0674   45.4746 H       1  ZINC000509132103    0.1000
     33 H33         3.9441    0.5994   47.1723 H       1  ZINC000509132103    0.0600
     34 H34         0.1087    2.5465   45.8241 H       1  ZINC000509132103    0.1600
     35 H35        -1.4851    2.9406   47.7091 H       1  ZINC000509132103    0.1600
     36 H36        -2.1267    1.2574   50.1308 H       1  ZINC000509132103    0.1100
     37 H37        -0.7425    1.7072   51.1555 H       1  ZINC000509132103    0.1000
     38 H38        -2.6381    3.0257   52.4321 H       1  ZINC000509132103    0.1100
     39 H39        -3.1017    4.6920   52.0115 H       1  ZINC000509132103    0.1100
     40 H40        -4.3160    4.1385   53.5374 H       1  ZINC000509132103    0.1000
     41 H41        -5.7428    5.1090   53.1042 H       1  ZINC000509132103    0.0900
     42 H42        -5.3203    4.5257   55.8405 H       1  ZINC000509132103    0.1200
     43 H43        -6.6112    3.4088   57.6094 H       1  ZINC000509132103    0.1300
     44 H44        -8.1988    1.6156   57.0226 H       1  ZINC000509132103    0.1200
     45 H45        -8.4746    0.9442   54.6761 H       1  ZINC000509132103    0.1200
     46 H46        -9.2990    3.6300   52.5670 H       1  ZINC000509132103    0.1200
     47 H47       -11.6902    3.1727   52.1979 H       1  ZINC000509132103    0.1200
     48 H48       -12.4446    0.8794   51.7130 H       1  ZINC000509132103    0.1200
     49 H49       -10.8077   -0.9564   51.5962 H       1  ZINC000509132103    0.1200
     50 H50        -8.4159   -0.4983   51.9607 H       1  ZINC000509132103    0.1200
     51 H51        -7.4779    3.7651   51.4970 H       1  ZINC000509132103    0.0800
     52 H52        -6.7136    2.4880   50.5139 H       1  ZINC000509132103    0.1000
@<TRIPOS>BOND
     1     1     2    1
     2     1    31    1
     3     1    32    1
     4     1    33    1
     5     2     3    1
     6     3    30   ar
     7     3     4   ar
     8     4     5   ar
     9     4    34    1
    10     5     6   ar
    11     5    35    1
    12     6     7    1
    13     6    29   ar
    14     7     8    1
    15     7    36    1
    16     7    37    1
    17     8     9    1
    18     9    10    1
    19     9    38    1
    20     9    39    1
    21    10    11    2
    22    10    12   am
    23    12    28    1
    24    12    13    1
    25    13    14    1
    26    13    40    1
    27    13    41    1
    28    14    19   ar
    29    14    15   ar
    30    15    16   ar
    31    15    42    1
    32    16    17   ar
    33    16    43    1
    34    17    18   ar
    35    17    44    1
    36    18    19   ar
    37    18    45    1
    38    19    20    1
    39    20    21    1
    40    20    22    1
    41    20    28    1
    42    22    27   ar
    43    22    23   ar
    44    23    24   ar
    45    23    46    1
    46    24    25   ar
    47    24    47    1
    48    25    26   ar
    49    25    48    1
    50    26    27   ar
    51    26    49    1
    52    27    50    1
    53    28    51    1
    54    28    52    1
    55    29    30   ar
@<TRIPOS>SUBSTRUCTURE
     1 ZINC000509132103        1 TEMP              0 ****  ****    0 ROOT


##########                                Name:    ZINC000489403631
##########                DOCK_Rotatable_Bonds:                   7
##########                         Heavy_Atoms:                  28
##########                    Molecular_Weight:             381.391
##########                DOCK_Rotatable_Bonds:                   7
##########                       Formal_Charge:          -0.0300003
##########                     HBond_Acceptors:                   9
##########                        HBond_Donors:                   1
##########                         Heavy_Atoms:                  28
##########                          Grid_Score:          -30.754150
##########                     Grid_vdw_energy:          -29.126904
##########                      Grid_es_energy:           -1.627248
##########           Internal_energy_repulsive:           12.576362

@<TRIPOS>MOLECULE
ZINC000489403631
 47 49 1 0 0
SMALL
USER_CHARGES


@<TRIPOS>ATOM
      1 C1         -6.7431    2.8072   55.8232 C.3     1  ZINC000489403631   -0.1100
      2 C2         -5.4339    2.9418   55.0892 C.ar    1  ZINC000489403631   -0.0800
      3 C3         -4.2433    2.7447   55.7596 C.ar    1  ZINC000489403631   -0.0900
      4 C4         -3.0368    2.8688   55.0830 C.ar    1  ZINC000489403631    0.1200
      5 N5         -1.8284    2.6685   55.7628 N.am    1  ZINC000489403631   -0.6600
      6 C6         -1.3756    3.6031   56.6218 C.2     1  ZINC000489403631    0.5100
      7 O7         -2.0142    4.6176   56.8064 O.2     1  ZINC000489403631   -0.4600
      8 C8         -0.0755    3.3876   57.3531 C.3     1  ZINC000489403631    0.1700
      9 C9          0.7985    2.4116   56.5628 C.3     1  ZINC000489403631   -0.1700
     10 C10         0.6553    4.7238   57.4986 C.3     1  ZINC000489403631   -0.1700
     11 N11        -0.3485    2.8332   58.6813 N.pl3   1  ZINC000489403631   -0.3400
     12 C12         0.1007    1.6528   59.1566 C.2     1  ZINC000489403631    0.1500
     13 C13        -0.3710    1.5089   60.4167 C.2     1  ZINC000489403631   -0.1900
     14 N14        -0.1221    0.3582   61.3137 N.pl3   1  ZINC000489403631    0.0700
     15 O15        -0.4650    0.4107   62.4812 O.2     1  ZINC000489403631   -0.1700
     16 O16         0.4258   -0.6414   60.8842 O.2     1  ZINC000489403631   -0.1600
     17 C17        -1.1349    2.6402   60.7220 C.2     1  ZINC000489403631    0.1000
     18 N18        -1.1170    3.4374   59.6846 N.2     1  ZINC000489403631   -0.2200
     19 C19        -3.0289    3.1910   53.7326 C.ar    1  ZINC000489403631   -0.1100
     20 C20        -4.2205    3.3879   53.0630 C.ar    1  ZINC000489403631   -0.1700
     21 C21        -5.4255    3.2582   53.7380 C.ar    1  ZINC000489403631    0.1000
     22 O22        -6.5983    3.4522   53.0783 O.3     1  ZINC000489403631   -0.2500
     23 C23        -7.3137    2.3575   52.7152 C.ar    1  ZINC000489403631    0.1400
     24 C24        -6.7021    1.2878   52.0653 C.ar    1  ZINC000489403631   -0.2000
     25 C25        -7.4639    0.1930   51.7127 C.ar    1  ZINC000489403631    0.1200
     26 N26        -8.7548    0.1518   51.9837 N.ar    1  ZINC000489403631   -0.4900
     27 C27        -9.3699    1.1448   52.5978 C.ar    1  ZINC000489403631    0.1200
     28 C28        -8.6769    2.2722   52.9881 C.ar    1  ZINC000489403631   -0.1800
     29 H29        -7.0873    1.7745   55.7658 H       1  ZINC000489403631    0.0700
     30 H30        -6.6043    3.0863   56.8677 H       1  ZINC000489403631    0.0700
     31 H31        -7.4845    3.4632   55.3672 H       1  ZINC000489403631    0.0700
     32 H32        -4.2501    2.4945   56.8102 H       1  ZINC000489403631    0.1500
     33 H33        -1.3176    1.8572   55.6152 H       1  ZINC000489403631    0.4100
     34 H34         1.0015    2.8242   55.5745 H       1  ZINC000489403631    0.1000
     35 H35         1.7387    2.2558   57.0916 H       1  ZINC000489403631    0.0900
     36 H36         0.2778    1.4597   56.4591 H       1  ZINC000489403631    0.0800
     37 H37         0.0327    5.4192   58.0615 H       1  ZINC000489403631    0.0800
     38 H38         1.5956    4.5680   58.0275 H       1  ZINC000489403631    0.0900
     39 H39         0.8584    5.1363   56.5103 H       1  ZINC000489403631    0.0900
     40 H40         0.7248    0.9488   58.6261 H       1  ZINC000489403631    0.2000
     41 H41        -1.6468    2.8258   61.6545 H       1  ZINC000489403631    0.2100
     42 H42        -2.0910    3.2880   53.2060 H       1  ZINC000489403631    0.1300
     43 H43        -4.2145    3.6385   52.0125 H       1  ZINC000489403631    0.1300
     44 H44        -5.6462    1.3154   51.8403 H       1  ZINC000489403631    0.1400
     45 H45        -6.9981   -0.6406   51.2082 H       1  ZINC000489403631    0.1600
     46 H46       -10.4282    1.0723   52.8010 H       1  ZINC000489403631    0.1700
     47 H47        -9.1862    3.0812   53.4906 H       1  ZINC000489403631    0.1500
@<TRIPOS>BOND
     1     1     2    1
     2     1    29    1
     3     1    30    1
     4     1    31    1
     5     2    21   ar
     6     2     3   ar
     7     3     4   ar
     8     3    32    1
     9     4     5    1
    10     4    19   ar
    11     5     6   am
    12     5    33    1
    13     6     7    2
    14     6     8    1
    15     8     9    1
    16     8    10    1
    17     8    11    1
    18     9    34    1
    19     9    35    1
    20     9    36    1
    21    10    37    1
    22    10    38    1
    23    10    39    1
    24    11    18    1
    25    11    12    1
    26    12    13    2
    27    12    40    1
    28    13    14    1
    29    13    17    1
    30    14    15    2
    31    14    16    2
    32    17    18    2
    33    17    41    1
    34    19    20   ar
    35    19    42    1
    36    20    21   ar
    37    20    43    1
    38    21    22    1
    39    22    23    1
    40    23    28   ar
    41    23    24   ar
    42    24    25   ar
    43    24    44    1
    44    25    26   ar
    45    25    45    1
    46    26    27   ar
    47    27    28   ar
    48    27    46    1
    49    28    47    1
@<TRIPOS>SUBSTRUCTURE
     1 ZINC000489403631        1 TEMP              0 ****  ****    0 ROOT


##########                                Name:    ZINC000740843182
##########                DOCK_Rotatable_Bonds:                  10
##########                         Heavy_Atoms:                  24
##########                    Molecular_Weight:              419.34
##########                DOCK_Rotatable_Bonds:                  10
##########                       Formal_Charge:          0.00999957
##########                     HBond_Acceptors:                   7
##########                        HBond_Donors:                   3
##########                         Heavy_Atoms:                  24
##########                          Grid_Score:          -30.740953
##########                     Grid_vdw_energy:          -29.254709
##########                      Grid_es_energy:           -1.486244
##########           Internal_energy_repulsive:           12.121197

@<TRIPOS>MOLECULE
ZINC000740843182
 47 48 1 0 0
SMALL
USER_CHARGES


@<TRIPOS>ATOM
      1 C1        -11.6080    1.1426   52.0525 C.3     1  ZINC000740843182   -0.1500
      2 C2        -10.9074    0.3276   53.1416 C.3     1  ZINC000740843182   -0.1000
      3 H3        -10.6329    0.9845   53.9670 H       1  ZINC000740843182    0.0900
      4 C4        -11.8527   -0.7627   53.6501 C.3     1  ZINC000740843182    0.1200
      5 N5        -11.4193   -1.2046   54.9778 N.am    1  ZINC000740843182   -0.7200
      6 C6        -11.7924   -0.5137   56.0732 C.2     1  ZINC000740843182    0.5500
      7 O7        -12.4874    0.4771   55.9593 O.2     1  ZINC000740843182   -0.5000
      8 C8        -11.3566   -0.9606   57.4128 C.ar    1  ZINC000740843182   -0.1300
      9 C9        -10.1682   -0.4759   57.9613 C.ar    1  ZINC000740843182    0.0200
     10 C10        -9.7674   -0.8966   59.2124 C.ar    1  ZINC000740843182   -0.6800
     11 S11        -8.2674   -0.2856   59.9062 S.o2    1  ZINC000740843182    2.7000
     12 O12        -7.8141   -1.2765   60.8182 O.2     1  ZINC000740843182   -0.9400
     13 O13        -7.4844    0.1853   58.8179 O.2     1  ZINC000740843182   -0.9500
     14 N14        -8.6534    1.0442   60.8146 N.am    1  ZINC000740843182   -1.0900
     15 C15        -9.5801    0.9173   61.9419 C.3     1  ZINC000740843182    0.0800
     16 C16        -8.9854    0.5822   63.3112 C.3     1  ZINC000740843182   -0.1800
     17 C17        -9.5177    1.9893   63.0319 C.3     1  ZINC000740843182   -0.1900
     18 C18       -10.5403   -1.7970   59.9241 C.ar    1  ZINC000740843182    0.0100
     19 C19       -11.7193   -2.2820   59.3874 C.ar    1  ZINC000740843182   -0.1200
     20 C20       -12.1351   -1.8657   58.1383 C.ar    1  ZINC000740843182    0.0100
     21 Br21      -13.7471   -2.5296   57.4057 Br      1  ZINC000740843182    0.0100
     22 C22        -9.6471   -0.3191   52.5634 C.3     1  ZINC000740843182   -0.1400
     23 C23        -8.5966    0.7607   52.2962 C.3     1  ZINC000740843182    0.1000
     24 H24        -8.9563    1.4328   51.5171 H       1  ZINC000740843182    0.1000
     25 C25        -7.2930    0.1023   51.8399 C.3     1  ZINC000740843182   -0.1900
     26 O26        -8.3612    1.5032   53.4943 O.3     1  ZINC000740843182   -0.5600
     27 H27       -10.9346    1.9194   51.6902 H       1  ZINC000740843182    0.0600
     28 H28       -11.8825    0.4857   51.2272 H       1  ZINC000740843182    0.0600
     29 H29       -12.5059    1.6032   52.4644 H       1  ZINC000740843182    0.0500
     30 H30       -12.8658   -0.3653   53.7121 H       1  ZINC000740843182    0.0700
     31 H31       -11.8355   -1.6082   52.9623 H       1  ZINC000740843182    0.0700
     32 H32       -10.8637   -1.9945   55.0687 H       1  ZINC000740843182    0.4000
     33 H33        -9.5636    0.2270   57.4073 H       1  ZINC000740843182    0.1500
     34 H34        -8.2658    1.9071   60.6001 H       1  ZINC000740843182    0.4200
     35 H35       -10.5582    0.5001   61.7019 H       1  ZINC000740843182    0.1400
     36 H36        -9.5720   -0.0558   63.9722 H       1  ZINC000740843182    0.1100
     37 H37        -7.9045    0.4563   63.3732 H       1  ZINC000740843182    0.1000
     38 H38        -8.7870    2.7888   62.9102 H       1  ZINC000740843182    0.1000
     39 H39       -10.4545    2.2769   63.5092 H       1  ZINC000740843182    0.1100
     40 H40       -10.2213   -2.1228   60.9031 H       1  ZINC000740843182    0.1600
     41 H41       -12.3179   -2.9846   59.9481 H       1  ZINC000740843182    0.1500
     42 H42        -9.2509   -1.0431   53.2754 H       1  ZINC000740843182    0.0700
     43 H43        -9.8937   -0.8249   51.6299 H       1  ZINC000740843182    0.0800
     44 H44        -7.4726   -0.4639   50.9260 H       1  ZINC000740843182    0.0700
     45 H45        -6.5446    0.8716   51.6496 H       1  ZINC000740843182    0.0600
     46 H46        -6.9333   -0.5697   52.6190 H       1  ZINC000740843182    0.0600
     47 H47        -7.6743    2.1786   53.4100 H       1  ZINC000740843182    0.3700
@<TRIPOS>BOND
     1     1     2    1
     2     1    27    1
     3     1    28    1
     4     1    29    1
     5     2     3    1
     6     2     4    1
     7     2    22    1
     8     4     5    1
     9     4    30    1
    10     4    31    1
    11     5     6   am
    12     5    32    1
    13     6     7    2
    14     6     8    1
    15     8    20   ar
    16     8     9   ar
    17     9    10   ar
    18     9    33    1
    19    10    11    1
    20    10    18   ar
    21    11    12    2
    22    11    13    2
    23    11    14   am
    24    14    15    1
    25    14    34    1
    26    15    17    1
    27    15    16    1
    28    15    35    1
    29    16    17    1
    30    16    36    1
    31    16    37    1
    32    17    38    1
    33    17    39    1
    34    18    19   ar
    35    18    40    1
    36    19    20   ar
    37    19    41    1
    38    20    21    1
    39    22    23    1
    40    22    42    1
    41    22    43    1
    42    23    24    1
    43    23    25    1
    44    23    26    1
    45    25    44    1
    46    25    45    1
    47    25    46    1
    48    26    47    1
@<TRIPOS>SUBSTRUCTURE
     1 ZINC000740843182        1 TEMP              0 ****  ****    0 ROOT


##########                                Name:    ZINC000621594459
##########                DOCK_Rotatable_Bonds:                  10
##########                         Heavy_Atoms:                  25
##########                    Molecular_Weight:             389.497
##########                DOCK_Rotatable_Bonds:                  10
##########                       Formal_Charge:         -7.7486e-07
##########                     HBond_Acceptors:                  10
##########                        HBond_Donors:                   3
##########                         Heavy_Atoms:                  25
##########                          Grid_Score:          -30.726032
##########                     Grid_vdw_energy:          -28.498749
##########                      Grid_es_energy:           -2.227284
##########           Internal_energy_repulsive:            7.106846

@<TRIPOS>MOLECULE
ZINC000621594459
 48 49 1 0 0
SMALL
USER_CHARGES


@<TRIPOS>ATOM
      1 C1         -7.8648    0.1112   52.0179 C.3     1  ZINC000621594459   -0.1600
      2 C2         -7.7725    1.6083   52.3200 C.3     1  ZINC000621594459    0.1300
      3 C3         -8.4348    1.8984   53.6683 C.3     1  ZINC000621594459   -0.1800
      4 N4         -6.3647    2.0103   52.3709 N.am    1  ZINC000621594459   -1.1100
      5 S5         -5.9402    3.5806   52.0605 S.o2    1  ZINC000621594459    2.6200
      6 O6         -6.3119    3.7825   50.7039 O.2     1  ZINC000621594459   -0.9500
      7 O7         -6.5529    4.3224   53.1062 O.2     1  ZINC000621594459   -0.9400
      8 C8         -4.1349    3.6046   52.2362 C.3     1  ZINC000621594459   -0.6600
      9 C9         -3.5097    2.6594   51.2082 C.3     1  ZINC000621594459    0.1300
     10 N10        -2.0560    2.6356   51.3874 N.am    1  ZINC000621594459   -0.7200
     11 C11        -1.2616    2.1933   50.3925 C.2     1  ZINC000621594459    0.5600
     12 O12        -1.7512    1.8157   49.3461 O.2     1  ZINC000621594459   -0.5200
     13 C13         0.2055    2.1675   50.5740 C.ar    1  ZINC000621594459   -0.1500
     14 C14         0.8605    3.2607   51.1429 C.ar    1  ZINC000621594459   -0.0300
     15 C15         2.2299    3.2301   51.3099 C.ar    1  ZINC000621594459   -0.1400
     16 C16         2.9533    2.1192   50.9143 C.ar    1  ZINC000621594459    0.0100
     17 C17         2.3099    1.0323   50.3491 C.ar    1  ZINC000621594459   -0.6800
     18 S18         3.2409   -0.3774   49.8482 S.o2    1  ZINC000621594459    2.7000
     19 O19         4.0946   -0.7021   50.9368 O.2     1  ZINC000621594459   -0.9400
     20 O20         2.3106   -1.2948   49.2895 O.2     1  ZINC000621594459   -0.9500
     21 N21         4.2273    0.1023   48.6074 N.am    1  ZINC000621594459   -1.0900
     22 C22         3.6455    0.6421   47.3760 C.3     1  ZINC000621594459    0.0800
     23 C23         4.3682    1.8133   46.7076 C.3     1  ZINC000621594459   -0.1800
     24 C24         4.4182    0.4216   46.0739 C.3     1  ZINC000621594459   -0.1900
     25 C25         0.9408    1.0475   50.1822 C.ar    1  ZINC000621594459    0.0400
     26 H26        -8.9123   -0.1879   51.9801 H       1  ZINC000621594459    0.0700
     27 H27        -7.3929   -0.0953   51.0574 H       1  ZINC000621594459    0.0700
     28 H28        -7.3549   -0.4495   52.8013 H       1  ZINC000621594459    0.0600
     29 H29        -8.2824    2.1691   51.5366 H       1  ZINC000621594459    0.0900
     30 H30        -7.9249    1.3376   54.4517 H       1  ZINC000621594459    0.0700
     31 H31        -8.3689    2.9649   53.8836 H       1  ZINC000621594459    0.0600
     32 H32        -9.4823    1.5993   53.6305 H       1  ZINC000621594459    0.0700
     33 H33        -5.6811    1.3566   52.5864 H       1  ZINC000621594459    0.4200
     34 H34        -3.7671    4.6170   52.0698 H       1  ZINC000621594459    0.1400
     35 H35        -3.8633    3.2798   53.2406 H       1  ZINC000621594459    0.1400
     36 H36        -3.9096    1.6550   51.3478 H       1  ZINC000621594459    0.0900
     37 H37        -3.7463    3.0082   50.2029 H       1  ZINC000621594459    0.0900
     38 H38        -1.6651    2.9381   52.2220 H       1  ZINC000621594459    0.4000
     39 H39         0.2970    4.1287   51.4515 H       1  ZINC000621594459    0.1300
     40 H40         2.7380    4.0753   51.7500 H       1  ZINC000621594459    0.1400
     41 H41         4.0249    2.1005   51.0469 H       1  ZINC000621594459    0.1500
     42 H42         5.1902    0.0258   48.6960 H       1  ZINC000621594459    0.4200
     43 H43         2.5569    0.6263   47.3241 H       1  ZINC000621594459    0.1400
     44 H44         3.7550    2.5686   46.2159 H       1  ZINC000621594459    0.1100
     45 H45         5.2765    2.1822   47.1840 H       1  ZINC000621594459    0.1000
     46 H46         5.3593   -0.1251   46.1336 H       1  ZINC000621594459    0.1000
     47 H47         3.8379    0.2611   45.1653 H       1  ZINC000621594459    0.1000
     48 H48         0.4398    0.1984   49.7414 H       1  ZINC000621594459    0.1600
@<TRIPOS>BOND
     1     1     2    1
     2     1    26    1
     3     1    27    1
     4     1    28    1
     5     2     3    1
     6     2     4    1
     7     2    29    1
     8     3    30    1
     9     3    31    1
    10     3    32    1
    11     4     5   am
    12     4    33    1
    13     5     6    2
    14     5     7    2
    15     5     8    1
    16     8     9    1
    17     8    34    1
    18     8    35    1
    19     9    10    1
    20     9    36    1
    21     9    37    1
    22    10    11   am
    23    10    38    1
    24    11    12    2
    25    11    13    1
    26    13    25   ar
    27    13    14   ar
    28    14    15   ar
    29    14    39    1
    30    15    16   ar
    31    15    40    1
    32    16    17   ar
    33    16    41    1
    34    17    18    1
    35    17    25   ar
    36    18    19    2
    37    18    20    2
    38    18    21   am
    39    21    22    1
    40    21    42    1
    41    22    24    1
    42    22    23    1
    43    22    43    1
    44    23    24    1
    45    23    44    1
    46    23    45    1
    47    24    46    1
    48    24    47    1
    49    25    48    1
@<TRIPOS>SUBSTRUCTURE
     1 ZINC000621594459        1 TEMP              0 ****  ****    0 ROOT


##########                                Name:    ZINC000744839011
##########                DOCK_Rotatable_Bonds:                  10
##########                         Heavy_Atoms:                  24
##########                    Molecular_Weight:              378.83
##########                DOCK_Rotatable_Bonds:                  10
##########                       Formal_Charge:           0.0300002
##########                     HBond_Acceptors:                   9
##########                        HBond_Donors:                   0
##########                         Heavy_Atoms:                  24
##########                          Grid_Score:          -30.708540
##########                     Grid_vdw_energy:          -27.364311
##########                      Grid_es_energy:           -3.344229
##########           Internal_energy_repulsive:            9.360176

@<TRIPOS>MOLECULE
ZINC000744839011
 43 43 1 0 0
SMALL
USER_CHARGES


@<TRIPOS>ATOM
      1 C1         -0.9067    2.1205   47.1796 C.3     1  ZINC000744839011    0.0400
      2 O2         -1.4910    2.4052   48.4780 O.3     1  ZINC000744839011   -0.3600
      3 C3         -0.8197    3.2570   49.2775 C.2     1  ZINC000744839011    0.5100
      4 O4          0.0917    3.9225   48.8270 O.2     1  ZINC000744839011   -0.5000
      5 C5         -1.1909    3.3815   50.6993 C.ar    1  ZINC000744839011   -0.1600
      6 C6         -0.2001    3.5549   51.6696 C.ar    1  ZINC000744839011   -0.0100
      7 C7         -0.5505    3.6712   52.9963 C.ar    1  ZINC000744839011   -0.2100
      8 C8         -1.8873    3.6165   53.3716 C.ar    1  ZINC000744839011    0.1800
      9 O9         -2.2282    3.7316   54.6803 O.3     1  ZINC000744839011   -0.2900
     10 C10        -2.6039    2.5324   55.3606 C.3     1  ZINC000744839011    0.0500
     11 C11        -1.5632    2.2079   56.4342 C.3     1  ZINC000744839011    0.0600
     12 O12        -1.6510    3.1851   57.5046 O.3     1  ZINC000744839011   -0.3400
     13 C13        -0.7727    3.0655   58.5126 C.2     1  ZINC000744839011    0.5000
     14 O14        -0.4892    4.0291   59.1842 O.2     1  ZINC000744839011   -0.4900
     15 C15        -0.1403    1.7297   58.8065 C.3     1  ZINC000744839011   -0.6400
     16 S16         0.3634    1.6692   60.5481 S.o2    1  ZINC000744839011    2.4400
     17 O17         1.5270    2.4685   60.7110 O.2     1  ZINC000744839011   -0.9100
     18 O18        -0.7752    1.9282   61.3579 O.2     1  ZINC000744839011   -0.9100
     19 C19         0.8273   -0.0735   60.7438 C.3     1  ZINC000744839011   -0.5700
     20 C20         2.2968   -0.2565   60.3586 C.3     1  ZINC000744839011   -0.1500
     21 C21         0.6258   -0.4944   62.2009 C.3     1  ZINC000744839011   -0.1500
     22 C22        -2.8773    3.4446   52.4093 C.ar    1  ZINC000744839011   -0.0800
     23 Cl23       -4.5459    3.3777   52.8842 Cl      1  ZINC000744839011   -0.0400
     24 C24        -2.5355    3.3323   51.0796 C.ar    1  ZINC000744839011   -0.0100
     25 H25        -0.8162    3.0461   46.6110 H       1  ZINC000744839011    0.0700
     26 H26         0.0808    1.6789   47.3145 H       1  ZINC000744839011    0.0700
     27 H27        -1.5459    1.4228   46.6386 H       1  ZINC000744839011    0.1100
     28 H28         0.8394    3.5970   51.3793 H       1  ZINC000744839011    0.1500
     29 H29         0.2149    3.8048   53.7465 H       1  ZINC000744839011    0.1500
     30 H30        -3.5783    2.6705   55.8291 H       1  ZINC000744839011    0.0900
     31 H31        -2.6573    1.7109   54.6463 H       1  ZINC000744839011    0.1000
     32 H32        -1.7529    1.2121   56.8349 H       1  ZINC000744839011    0.1100
     33 H33        -0.5661    2.2389   55.9949 H       1  ZINC000744839011    0.0900
     34 H34        -0.8601    0.9354   58.6086 H       1  ZINC000744839011    0.1700
     35 H35         0.7344    1.5939   58.1703 H       1  ZINC000744839011    0.1700
     36 H36         0.2029   -0.6906   60.0976 H       1  ZINC000744839011    0.1400
     37 H37         2.5756   -1.3036   60.4761 H       1  ZINC000744839011    0.0900
     38 H38         2.4403    0.0434   59.3205 H       1  ZINC000744839011    0.0700
     39 H39         2.9213    0.3606   61.0047 H       1  ZINC000744839011    0.0800
     40 H40        -0.4210   -0.3641   62.4752 H       1  ZINC000744839011    0.0800
     41 H41         0.9047   -1.5416   62.3184 H       1  ZINC000744839011    0.0900
     42 H42         1.2503    0.1225   62.8469 H       1  ZINC000744839011    0.0800
     43 H43        -3.3042    3.1988   50.3329 H       1  ZINC000744839011    0.1600
@<TRIPOS>BOND
     1     1     2    1
     2     1    25    1
     3     1    26    1
     4     1    27    1
     5     2     3    1
     6     3     4    2
     7     3     5    1
     8     5    24   ar
     9     5     6   ar
    10     6     7   ar
    11     6    28    1
    12     7     8   ar
    13     7    29    1
    14     8     9    1
    15     8    22   ar
    16     9    10    1
    17    10    11    1
    18    10    30    1
    19    10    31    1
    20    11    12    1
    21    11    32    1
    22    11    33    1
    23    12    13    1
    24    13    14    2
    25    13    15    1
    26    15    16    1
    27    15    34    1
    28    15    35    1
    29    16    17    2
    30    16    18    2
    31    16    19    1
    32    19    20    1
    33    19    21    1
    34    19    36    1
    35    20    37    1
    36    20    38    1
    37    20    39    1
    38    21    40    1
    39    21    41    1
    40    21    42    1
    41    22    23    1
    42    22    24   ar
    43    24    43    1
@<TRIPOS>SUBSTRUCTURE
     1 ZINC000744839011        1 TEMP              0 ****  ****    0 ROOT


##########                                Name:    ZINC001500042809
##########                DOCK_Rotatable_Bonds:                   9
##########                         Heavy_Atoms:                  24
##########                    Molecular_Weight:              346.45
##########                DOCK_Rotatable_Bonds:                   9
##########                       Formal_Charge:           0.0200001
##########                     HBond_Acceptors:                   6
##########                        HBond_Donors:                   2
##########                         Heavy_Atoms:                  24
##########                          Grid_Score:          -30.703810
##########                     Grid_vdw_energy:          -28.751732
##########                      Grid_es_energy:           -1.952077
##########           Internal_energy_repulsive:           17.061131

@<TRIPOS>MOLECULE
ZINC001500042809
 46 47 1 0 0
SMALL
USER_CHARGES


@<TRIPOS>ATOM
      1 C1          4.3645    0.5962   47.3389 C.3     1  ZINC001500042809    0.0200
      2 O2          3.3876   -0.2557   47.9405 O.3     1  ZINC001500042809   -0.3100
      3 C3          2.1813    0.2963   48.2266 C.ar    1  ZINC001500042809    0.1600
      4 C4          2.0151    1.0324   49.3940 C.ar    1  ZINC001500042809   -0.1600
      5 C5          0.7925    1.5936   49.6880 C.ar    1  ZINC001500042809   -0.0200
      6 C6         -0.2817    1.4226   48.8109 C.ar    1  ZINC001500042809   -0.1800
      7 C7         -1.5939    2.0225   49.1223 C.2     1  ZINC001500042809    0.5600
      8 O8         -2.2457    2.5499   48.2419 O.2     1  ZINC001500042809   -0.5300
      9 N9         -2.0695    1.9856   50.3829 N.am    1  ZINC001500042809   -0.7300
     10 C10        -3.3727    2.5796   50.6918 C.3     1  ZINC001500042809    0.1300
     11 C11        -3.4474    2.8963   52.1867 C.3     1  ZINC001500042809   -0.1200
     12 H12        -3.2999    1.9809   52.7599 H       1  ZINC001500042809    0.0900
     13 C13        -2.3567    3.9061   52.5492 C.3     1  ZINC001500042809   -0.1500
     14 C14        -4.8197    3.4880   52.5147 C.3     1  ZINC001500042809    0.1300
     15 N15        -5.8415    2.4445   52.3998 N.am    1  ZINC001500042809   -0.7300
     16 C16        -7.1055    2.7727   52.0667 C.2     1  ZINC001500042809    0.5900
     17 O17        -7.3977    3.9359   51.8599 O.2     1  ZINC001500042809   -0.5200
     18 C18        -8.1283    1.7288   51.9534 C.2     1  ZINC001500042809   -0.2800
     19 C19        -9.4556    1.9426   51.7093 C.2     1  ZINC001500042809   -0.0100
     20 C20       -10.0529    3.3132   51.5200 C.3     1  ZINC001500042809   -0.1100
     21 C21       -10.1919    0.7830   51.6530 C.2     1  ZINC001500042809   -0.1500
     22 C22        -9.4937   -0.3424   51.8443 C.2     1  ZINC001500042809   -0.2200
     23 S23        -7.8424    0.0003   52.1026 S.3     1  ZINC001500042809    0.1900
     24 C24        -0.1120    0.6775   47.6411 C.ar    1  ZINC001500042809   -0.0400
     25 C25         1.1151    0.1235   47.3518 C.ar    1  ZINC001500042809   -0.2200
     26 H26         3.9826    0.9735   46.3902 H       1  ZINC001500042809    0.0600
     27 H27         4.5758    1.4333   48.0042 H       1  ZINC001500042809    0.0600
     28 H28         5.2802    0.0316   47.1632 H       1  ZINC001500042809    0.1000
     29 H29         2.8459    1.1641   50.0713 H       1  ZINC001500042809    0.1400
     30 H30         0.6641    2.1649   50.5955 H       1  ZINC001500042809    0.1400
     31 H31        -1.5490    1.5659   51.0855 H       1  ZINC001500042809    0.4000
     32 H32        -4.1636    1.8768   50.4293 H       1  ZINC001500042809    0.0800
     33 H33        -3.4982    3.4983   50.1190 H       1  ZINC001500042809    0.0800
     34 H34        -1.3791    3.4846   52.3154 H       1  ZINC001500042809    0.0600
     35 H35        -2.5042    4.8215   51.9760 H       1  ZINC001500042809    0.0600
     36 H36        -2.4099    4.1318   53.6143 H       1  ZINC001500042809    0.0600
     37 H37        -4.8129    3.8794   53.5319 H       1  ZINC001500042809    0.0800
     38 H38        -5.0439    4.2945   51.8166 H       1  ZINC001500042809    0.0800
     39 H39        -5.6083    1.5171   52.5635 H       1  ZINC001500042809    0.4000
     40 H40       -10.0211    3.5807   50.4637 H       1  ZINC001500042809    0.0800
     41 H41       -11.0876    3.3092   51.8628 H       1  ZINC001500042809    0.0700
     42 H42        -9.4819    4.0411   52.0963 H       1  ZINC001500042809    0.0900
     43 H43       -11.2559    0.7807   51.4684 H       1  ZINC001500042809    0.1500
     44 H44        -9.9183   -1.3354   51.8325 H       1  ZINC001500042809    0.1700
     45 H45        -0.9411    0.5394   46.9629 H       1  ZINC001500042809    0.1300
     46 H46         1.2479   -0.4497   46.4463 H       1  ZINC001500042809    0.1400
@<TRIPOS>BOND
     1     1     2    1
     2     1    26    1
     3     1    27    1
     4     1    28    1
     5     2     3    1
     6     3    25   ar
     7     3     4   ar
     8     4     5   ar
     9     4    29    1
    10     5     6   ar
    11     5    30    1
    12     6     7    1
    13     6    24   ar
    14     7     8    2
    15     7     9   am
    16     9    10    1
    17     9    31    1
    18    10    11    1
    19    10    32    1
    20    10    33    1
    21    11    12    1
    22    11    13    1
    23    11    14    1
    24    13    34    1
    25    13    35    1
    26    13    36    1
    27    14    15    1
    28    14    37    1
    29    14    38    1
    30    15    16   am
    31    15    39    1
    32    16    17    2
    33    16    18    1
    34    18    23    1
    35    18    19    2
    36    19    20    1
    37    19    21    1
    38    20    40    1
    39    20    41    1
    40    20    42    1
    41    21    22    2
    42    21    43    1
    43    22    23    1
    44    22    44    1
    45    24    25   ar
    46    24    45    1
    47    25    46    1
@<TRIPOS>SUBSTRUCTURE
     1 ZINC001500042809        1 TEMP              0 ****  ****    0 ROOT


##########                                Name:    ZINC000269356812
##########                DOCK_Rotatable_Bonds:                  10
##########                         Heavy_Atoms:                  25
##########                    Molecular_Weight:             387.431
##########                DOCK_Rotatable_Bonds:                  10
##########                       Formal_Charge:          0.00999978
##########                     HBond_Acceptors:                  10
##########                        HBond_Donors:                   3
##########                         Heavy_Atoms:                  25
##########                          Grid_Score:          -30.682123
##########                     Grid_vdw_energy:          -31.148108
##########                      Grid_es_energy:            0.465984
##########           Internal_energy_repulsive:           10.915831

@<TRIPOS>MOLECULE
ZINC000269356812
 40 41 1 0 0
SMALL
USER_CHARGES


@<TRIPOS>ATOM
      1 C1          0.7152    0.9740   49.2022 C.3     1  ZINC000269356812   -0.1400
      2 C2          0.0676    1.8955   48.1666 C.3     1  ZINC000269356812    0.2000
      3 O3         -1.0355    1.2239   47.5550 O.3     1  ZINC000269356812   -0.5400
      4 C4         -0.4287    3.1681   48.8559 C.3     1  ZINC000269356812    0.0900
      5 N5         -1.7809    2.9471   49.3743 N.am    1  ZINC000269356812   -0.6900
      6 C6         -1.9902    2.8795   50.7040 C.2     1  ZINC000269356812    0.5100
      7 O7         -1.0581    3.0003   51.4719 O.2     1  ZINC000269356812   -0.5100
      8 C8         -3.3688    2.6560   51.2325 C.2     1  ZINC000269356812    0.5100
      9 O9         -3.5406    2.4669   52.4192 O.2     1  ZINC000269356812   -0.4900
     10 N10        -4.4222    2.6640   50.3919 N.am    1  ZINC000269356812   -0.6400
     11 C11        -5.7140    2.4546   50.8870 C.ar    1  ZINC000269356812    0.0900
     12 C12        -6.5597    3.5361   51.1329 C.ar    1  ZINC000269356812   -0.0600
     13 C13        -7.8277    3.2827   51.6214 C.ar    1  ZINC000269356812   -0.1200
     14 C14        -8.2159    1.9661   51.8504 C.ar    1  ZINC000269356812    0.1000
     15 S15        -9.8297    1.6294   52.4724 S.3     1  ZINC000269356812   -0.0600
     16 C16        -9.7038   -0.0947   53.0218 C.3     1  ZINC000269356812    0.2900
     17 F17       -10.3876   -0.2495   54.2325 F       1  ZINC000269356812   -0.1700
     18 F18       -10.2692   -0.9345   52.0562 F       1  ZINC000269356812   -0.1700
     19 N19        -7.3862    0.9632   51.6054 N.ar    1  ZINC000269356812   -0.4600
     20 C20        -6.1714    1.1681   51.1340 C.ar    1  ZINC000269356812    0.1100
     21 C21         1.0819    2.2580   47.1127 C.2     1  ZINC000269356812   -0.2300
     22 C22         2.1281    1.5083   46.7622 C.2     1  ZINC000269356812   -0.1100
     23 C23         2.9248    2.0475   45.7669 C.2     1  ZINC000269356812   -0.1400
     24 C24         2.5256    3.2351   45.3091 C.2     1  ZINC000269356812   -0.2000
     25 S25         1.0632    3.7307   46.1513 S.3     1  ZINC000269356812    0.1100
     26 H26         1.0687    0.0674   48.7111 H       1  ZINC000269356812    0.0800
     27 H27         1.5567    1.4863   49.6686 H       1  ZINC000269356812    0.0800
     28 H28        -0.0184    0.7118   49.9645 H       1  ZINC000269356812    0.0700
     29 H29        -1.5450    1.7772   46.9473 H       1  ZINC000269356812    0.3800
     30 H30         0.2396    3.4195   49.6795 H       1  ZINC000269356812    0.0900
     31 H31        -0.4444    3.9878   48.1376 H       1  ZINC000269356812    0.0900
     32 H32        -2.5257    2.8494   48.7605 H       1  ZINC000269356812    0.4200
     33 H33        -4.2848    2.8150   49.4435 H       1  ZINC000269356812    0.4300
     34 H34        -6.2314    4.5479   50.9462 H       1  ZINC000269356812    0.1600
     35 H35        -8.5085    4.0964   51.8234 H       1  ZINC000269356812    0.1500
     36 H36        -8.6547   -0.3560   53.1612 H       1  ZINC000269356812    0.1500
     37 H37        -5.5224    0.3255   50.9463 H       1  ZINC000269356812    0.1700
     38 H38         2.3379    0.5531   47.2205 H       1  ZINC000269356812    0.1500
     39 H39         3.8032    1.5449   45.3898 H       1  ZINC000269356812    0.1400
     40 H40         3.0224    3.8036   44.5368 H       1  ZINC000269356812    0.1700
@<TRIPOS>BOND
     1     1     2    1
     2     1    26    1
     3     1    27    1
     4     1    28    1
     5     2     3    1
     6     2     4    1
     7     2    21    1
     8     3    29    1
     9     4     5    1
    10     4    30    1
    11     4    31    1
    12     5     6   am
    13     5    32    1
    14     6     7    2
    15     6     8    1
    16     8     9    2
    17     8    10   am
    18    10    11    1
    19    10    33    1
    20    11    20   ar
    21    11    12   ar
    22    12    13   ar
    23    12    34    1
    24    13    14   ar
    25    13    35    1
    26    14    15    1
    27    14    19   ar
    28    15    16    1
    29    16    17    1
    30    16    18    1
    31    16    36    1
    32    19    20   ar
    33    20    37    1
    34    21    25    1
    35    21    22    2
    36    22    23    1
    37    22    38    1
    38    23    24    2
    39    23    39    1
    40    24    25    1
    41    24    40    1
@<TRIPOS>SUBSTRUCTURE
     1 ZINC000269356812        1 TEMP              0 ****  ****    0 ROOT


##########                                Name:    ZINC001124460178
##########                DOCK_Rotatable_Bonds:                  12
##########                         Heavy_Atoms:                  22
##########                    Molecular_Weight:             328.479
##########                DOCK_Rotatable_Bonds:                  12
##########                       Formal_Charge:          -0.0100003
##########                     HBond_Acceptors:                   7
##########                        HBond_Donors:                   2
##########                         Heavy_Atoms:                  22
##########                          Grid_Score:          -30.679482
##########                     Grid_vdw_energy:          -27.784868
##########                      Grid_es_energy:           -2.894614
##########           Internal_energy_repulsive:           15.812832

@<TRIPOS>MOLECULE
ZINC001124460178
 50 50 1 0 0
SMALL
USER_CHARGES


@<TRIPOS>ATOM
      1 C1        -10.7320    2.8837   51.9105 C.3     1  ZINC001124460178   -0.0700
      2 C2         -9.5317    1.9745   51.9732 C.2     1  ZINC001124460178    0.3100
      3 N3         -9.6711    0.6829   52.0477 N.2     1  ZINC001124460178   -0.5000
      4 S4         -8.0944    0.0505   52.0973 S.3     1  ZINC001124460178    0.1800
      5 C5         -7.3260    1.5905   52.0132 C.2     1  ZINC001124460178    0.3400
      6 N6         -5.9684    1.8549   52.0085 N.pl3   1  ZINC001124460178   -0.6600
      7 C7         -5.4316    2.9157   51.1523 C.3     1  ZINC001124460178    0.0900
      8 C8         -4.1611    3.4874   51.7845 C.3     1  ZINC001124460178    0.0800
      9 H9         -3.8741    4.3999   51.2620 H       1  ZINC001124460178    0.1200
     10 O10        -4.4057    3.7835   53.1609 O.3     1  ZINC001124460178   -0.5500
     11 C11        -3.0315    2.4612   51.6766 C.3     1  ZINC001124460178    0.0900
     12 N12        -1.8494    3.0961   51.0884 N.am    1  ZINC001124460178   -0.6100
     13 C13        -0.9289    3.8579   51.9360 C.3     1  ZINC001124460178    0.0800
     14 C14        -1.6090    2.9795   49.7674 C.2     1  ZINC001124460178    0.5100
     15 O15        -2.3719    2.3502   49.0654 O.2     1  ZINC001124460178   -0.5400
     16 C16        -0.3922    3.6311   49.1626 C.3     1  ZINC001124460178   -0.1400
     17 C17        -0.1523    3.0630   47.7623 C.3     1  ZINC001124460178   -0.1100
     18 C18         0.4219    1.6495   47.8769 C.3     1  ZINC001124460178   -0.1200
     19 C19         1.8960    1.7290   48.2788 C.3     1  ZINC001124460178   -0.1200
     20 C20         2.5464    0.3548   48.1068 C.3     1  ZINC001124460178   -0.1000
     21 C21         3.0237    0.1937   46.6622 C.3     1  ZINC001124460178   -0.1500
     22 C22         3.7409    0.2337   49.0551 C.3     1  ZINC001124460178   -0.1500
     23 N23        -8.3122    2.4600   51.9489 N.2     1  ZINC001124460178   -0.5800
     24 H24       -11.0162    3.0389   50.8697 H       1  ZINC001124460178    0.0900
     25 H25       -11.5621    2.4273   52.4496 H       1  ZINC001124460178    0.0900
     26 H26       -10.4857    3.8425   52.3667 H       1  ZINC001124460178    0.0900
     27 H27        -5.3716    1.3380   52.5720 H       1  ZINC001124460178    0.4200
     28 H28        -5.1960    2.5057   50.1702 H       1  ZINC001124460178    0.0800
     29 H29        -6.1732    3.7076   51.0470 H       1  ZINC001124460178    0.0900
     30 H30        -4.5569    3.0024   53.7104 H       1  ZINC001124460178    0.3800
     31 H31        -2.7857    2.0855   52.6698 H       1  ZINC001124460178    0.0900
     32 H32        -3.3519    1.6334   51.0441 H       1  ZINC001124460178    0.1000
     33 H33        -0.1553    3.1934   52.3208 H       1  ZINC001124460178    0.0600
     34 H34        -0.4670    4.6517   51.3489 H       1  ZINC001124460178    0.0800
     35 H35        -1.4795    4.2952   52.7688 H       1  ZINC001124460178    0.0800
     36 H36        -0.5517    4.7073   49.0956 H       1  ZINC001124460178    0.0900
     37 H37         0.4767    3.4309   49.7896 H       1  ZINC001124460178    0.0900
     38 H38        -1.0959    3.0288   47.2175 H       1  ZINC001124460178    0.0700
     39 H39         0.5529    3.6995   47.2278 H       1  ZINC001124460178    0.0700
     40 H40        -0.1314    1.0928   48.6332 H       1  ZINC001124460178    0.0600
     41 H41         0.3342    1.1426   46.9159 H       1  ZINC001124460178    0.0600
     42 H42         2.4067    2.4544   47.6456 H       1  ZINC001124460178    0.0600
     43 H43         1.9723    2.0392   49.3210 H       1  ZINC001124460178    0.0600
     44 H44         1.8186   -0.4231   48.3380 H       1  ZINC001124460178    0.0700
     45 H45         3.7515    0.9716   46.4310 H       1  ZINC001124460178    0.0500
     46 H46         3.4870   -0.7854   46.5397 H       1  ZINC001124460178    0.0500
     47 H47         2.1727    0.2799   45.9866 H       1  ZINC001124460178    0.0500
     48 H48         3.4008    0.3485   50.0844 H       1  ZINC001124460178    0.0600
     49 H49         4.2042   -0.7454   48.9327 H       1  ZINC001124460178    0.0500
     50 H50         4.4686    1.0115   48.8241 H       1  ZINC001124460178    0.0500
@<TRIPOS>BOND
     1     1     2    1
     2     1    24    1
     3     1    25    1
     4     1    26    1
     5     2    23    1
     6     2     3    2
     7     3     4    1
     8     4     5    1
     9     5     6    1
    10     5    23    2
    11     6     7    1
    12     6    27    1
    13     7     8    1
    14     7    28    1
    15     7    29    1
    16     8     9    1
    17     8    10    1
    18     8    11    1
    19    10    30    1
    20    11    12    1
    21    11    31    1
    22    11    32    1
    23    12    13    1
    24    12    14   am
    25    13    33    1
    26    13    34    1
    27    13    35    1
    28    14    15    2
    29    14    16    1
    30    16    17    1
    31    16    36    1
    32    16    37    1
    33    17    18    1
    34    17    38    1
    35    17    39    1
    36    18    19    1
    37    18    40    1
    38    18    41    1
    39    19    20    1
    40    19    42    1
    41    19    43    1
    42    20    21    1
    43    20    22    1
    44    20    44    1
    45    21    45    1
    46    21    46    1
    47    21    47    1
    48    22    48    1
    49    22    49    1
    50    22    50    1
@<TRIPOS>SUBSTRUCTURE
     1 ZINC001124460178        1 TEMP              0 ****  ****    0 ROOT


##########                                Name:    ZINC000471198073
##########                DOCK_Rotatable_Bonds:                  12
##########                         Heavy_Atoms:                  30
##########                    Molecular_Weight:             409.528
##########                DOCK_Rotatable_Bonds:                  12
##########                       Formal_Charge:          -0.0399998
##########                     HBond_Acceptors:                   6
##########                        HBond_Donors:                   3
##########                         Heavy_Atoms:                  30
##########                          Grid_Score:          -30.629227
##########                     Grid_vdw_energy:          -28.777159
##########                      Grid_es_energy:           -1.852067
##########           Internal_energy_repulsive:           16.806232

@<TRIPOS>MOLECULE
ZINC000471198073
 61 62 1 0 0
SMALL
USER_CHARGES


@<TRIPOS>ATOM
      1 C1         -7.5793    2.3410   52.6168 C.3     1  ZINC000471198073   -0.1400
      2 C2         -6.8490    3.0584   51.4797 C.3     1  ZINC000471198073   -0.1100
      3 C3         -7.6510    4.2905   51.0558 C.3     1  ZINC000471198073   -0.1500
      4 C4         -5.4830    3.4861   51.9509 C.2     1  ZINC000471198073    0.5200
      5 O5         -5.1696    4.6573   51.9190 O.2     1  ZINC000471198073   -0.5200
      6 N6         -4.6095    2.5670   52.4080 N.am    1  ZINC000471198073   -0.6700
      7 C7         -3.3411    2.9641   52.8455 C.ar    1  ZINC000471198073    0.1600
      8 C8         -2.3561    3.2869   51.9207 C.ar    1  ZINC000471198073   -0.1500
      9 C9         -1.1032    3.6796   52.3517 C.ar    1  ZINC000471198073   -0.0800
     10 C10        -0.8258    3.7526   53.7028 C.ar    1  ZINC000471198073   -0.1300
     11 C11        -1.8068    3.4305   54.6335 C.ar    1  ZINC000471198073    0.1500
     12 N12        -1.5255    3.5040   56.0002 N.am    1  ZINC000471198073   -0.6400
     13 C13        -1.2929    2.3771   56.7019 C.2     1  ZINC000471198073    0.5100
     14 O14        -1.3277    1.2983   56.1467 O.2     1  ZINC000471198073   -0.5000
     15 C15        -0.9923    2.4557   58.1628 C.2     1  ZINC000471198073    0.5100
     16 O16        -1.3594    3.4164   58.8070 O.2     1  ZINC000471198073   -0.5100
     17 N17        -0.3132    1.4597   58.7655 N.am    1  ZINC000471198073   -0.7000
     18 C18        -0.0168    1.5375   60.1981 C.3     1  ZINC000471198073    0.1200
     19 C19         0.8361    0.3355   60.6086 C.3     1  ZINC000471198073   -0.0900
     20 H20         0.9652   -0.3275   59.7530 H       1  ZINC000471198073    0.0800
     21 C21         2.2052    0.8216   61.0883 C.3     1  ZINC000471198073   -0.0800
     22 C22         3.0172    1.2829   59.9054 C.ar    1  ZINC000471198073   -0.0800
     23 C23         3.2874    2.6277   59.7348 C.ar    1  ZINC000471198073   -0.1200
     24 C24         4.0321    3.0509   58.6499 C.ar    1  ZINC000471198073   -0.1200
     25 C25         4.5071    2.1291   57.7357 C.ar    1  ZINC000471198073   -0.1200
     26 C26         4.2376    0.7841   57.9068 C.ar    1  ZINC000471198073   -0.1200
     27 C27         3.4966    0.3605   58.9942 C.ar    1  ZINC000471198073   -0.1200
     28 C28         0.1387   -0.4220   61.7401 C.3     1  ZINC000471198073   -0.1000
     29 C29         0.7409   -1.8231   61.8628 C.3     1  ZINC000471198073   -0.1600
     30 C30         0.3336    0.3339   63.0561 C.3     1  ZINC000471198073   -0.1700
     31 C31        -3.0677    3.0413   54.2036 C.ar    1  ZINC000471198073   -0.1400
     32 H32        -8.5673    2.0317   52.2760 H       1  ZINC000471198073    0.0700
     33 H33        -7.0079    1.4632   52.9188 H       1  ZINC000471198073    0.0600
     34 H34        -7.6828    3.0169   53.4656 H       1  ZINC000471198073    0.0600
     35 H35        -6.7455    2.3826   50.6309 H       1  ZINC000471198073    0.1000
     36 H36        -7.7546    4.9664   51.9046 H       1  ZINC000471198073    0.0600
     37 H37        -7.1308    4.8016   50.2457 H       1  ZINC000471198073    0.0600
     38 H38        -8.6391    3.9812   50.7150 H       1  ZINC000471198073    0.0700
     39 H39        -4.8600    1.6304   52.4334 H       1  ZINC000471198073    0.4100
     40 H40        -2.5696    3.2306   50.8635 H       1  ZINC000471198073    0.1300
     41 H41        -0.3392    3.9297   51.6306 H       1  ZINC000471198073    0.1300
     42 H42         0.1543    4.0598   54.0365 H       1  ZINC000471198073    0.1400
     43 H43        -1.4977    4.3662   56.4440 H       1  ZINC000471198073    0.4200
     44 H44        -0.0208    0.6913   58.2508 H       1  ZINC000471198073    0.4200
     45 H45         0.5283    2.4581   60.4068 H       1  ZINC000471198073    0.0700
     46 H46        -0.9490    1.5314   60.7629 H       1  ZINC000471198073    0.0800
     47 H47         2.0733    1.6504   61.7838 H       1  ZINC000471198073    0.0800
     48 H48         2.7252    0.0054   61.5899 H       1  ZINC000471198073    0.0800
     49 H49         2.9163    3.3480   60.4489 H       1  ZINC000471198073    0.1200
     50 H50         4.2425    4.1017   58.5161 H       1  ZINC000471198073    0.1200
     51 H51         5.0883    2.4597   56.8877 H       1  ZINC000471198073    0.1200
     52 H52         4.6085    0.0639   57.1926 H       1  ZINC000471198073    0.1200
     53 H53         3.2860   -0.6903   59.1280 H       1  ZINC000471198073    0.1200
     54 H54        -0.9262   -0.5021   61.5215 H       1  ZINC000471198073    0.0800
     55 H55         1.7815   -1.7451   62.1777 H       1  ZINC000471198073    0.0600
     56 H56         0.1799   -2.3963   62.6010 H       1  ZINC000471198073    0.0600
     57 H57         0.6903   -2.3262   60.8972 H       1  ZINC000471198073    0.0600
     58 H58         0.0207    1.3703   62.9295 H       1  ZINC000471198073    0.0600
     59 H59        -0.2665   -0.1342   63.8363 H       1  ZINC000471198073    0.0600
     60 H60         1.3856    0.3040   63.3397 H       1  ZINC000471198073    0.0700
     61 H61        -3.8317    2.7905   54.9246 H       1  ZINC000471198073    0.1400
@<TRIPOS>BOND
     1     1     2    1
     2     1    32    1
     3     1    33    1
     4     1    34    1
     5     2     3    1
     6     2     4    1
     7     2    35    1
     8     3    36    1
     9     3    37    1
    10     3    38    1
    11     4     5    2
    12     4     6   am
    13     6     7    1
    14     6    39    1
    15     7    31   ar
    16     7     8   ar
    17     8     9   ar
    18     8    40    1
    19     9    10   ar
    20     9    41    1
    21    10    11   ar
    22    10    42    1
    23    11    12    1
    24    11    31   ar
    25    12    13   am
    26    12    43    1
    27    13    14    2
    28    13    15    1
    29    15    16    2
    30    15    17   am
    31    17    18    1
    32    17    44    1
    33    18    19    1
    34    18    45    1
    35    18    46    1
    36    19    20    1
    37    19    21    1
    38    19    28    1
    39    21    22    1
    40    21    47    1
    41    21    48    1
    42    22    27   ar
    43    22    23   ar
    44    23    24   ar
    45    23    49    1
    46    24    25   ar
    47    24    50    1
    48    25    26   ar
    49    25    51    1
    50    26    27   ar
    51    26    52    1
    52    27    53    1
    53    28    29    1
    54    28    30    1
    55    28    54    1
    56    29    55    1
    57    29    56    1
    58    29    57    1
    59    30    58    1
    60    30    59    1
    61    30    60    1
    62    31    61    1
@<TRIPOS>SUBSTRUCTURE
     1 ZINC000471198073        1 TEMP              0 ****  ****    0 ROOT


##########                                Name:    ZINC000980108339
##########                DOCK_Rotatable_Bonds:                   9
##########                         Heavy_Atoms:                  25
##########                    Molecular_Weight:             348.445
##########                DOCK_Rotatable_Bonds:                   9
##########                       Formal_Charge:          -0.0100001
##########                     HBond_Acceptors:                   7
##########                        HBond_Donors:                   3
##########                         Heavy_Atoms:                  25
##########                          Grid_Score:          -30.598690
##########                     Grid_vdw_energy:          -29.633266
##########                      Grid_es_energy:           -0.965424
##########           Internal_energy_repulsive:            5.572480

@<TRIPOS>MOLECULE
ZINC000980108339
 53 56 1 0 0
SMALL
USER_CHARGES


@<TRIPOS>ATOM
      1 C1        -11.4112   -1.8815   60.4712 C.3     1  ZINC000980108339    0.1200
      2 N2        -10.1908   -1.0740   60.4019 N.am    1  ZINC000980108339   -0.6400
      3 C3         -9.3731   -0.8674   59.1972 C.3     1  ZINC000980108339    0.1100
      4 C4         -8.2300    0.0467   59.6793 C.3     1  ZINC000980108339    0.1000
      5 H5         -7.2666   -0.4485   59.5573 H       1  ZINC000980108339    0.1200
      6 C6         -8.2486    1.3555   58.9323 C.2     1  ZINC000980108339    0.5000
      7 O7         -8.8307    2.3117   59.3988 O.2     1  ZINC000980108339   -0.5200
      8 N8         -7.6183    1.4633   57.7459 N.am    1  ZINC000980108339   -0.7200
      9 C9         -7.6378    2.7349   57.0189 C.3     1  ZINC000980108339    0.1300
     10 C10        -7.2102    2.5002   55.5687 C.3     1  ZINC000980108339   -0.1200
     11 H11        -6.2388    2.0124   55.4877 H       1  ZINC000980108339    0.1000
     12 C12        -8.3010    1.8484   54.7027 C.3     1  ZINC000980108339   -0.1400
     13 C13        -7.8616    2.7969   53.5747 C.3     1  ZINC000980108339    0.1200
     14 H14        -8.6922    3.2037   52.9979 H       1  ZINC000980108339    0.1100
     15 N15        -6.7963    2.2506   52.7303 N.am    1  ZINC000980108339   -0.7200
     16 C16        -6.7502    2.5598   51.4193 C.2     1  ZINC000980108339    0.5200
     17 O17        -7.5897    3.2915   50.9389 O.2     1  ZINC000980108339   -0.5300
     18 C18        -5.6554    1.9964   50.5502 C.3     1  ZINC000980108339   -0.1100
     19 C19        -4.3032    2.2018   51.2360 C.3     1  ZINC000980108339   -0.1300
     20 H20        -4.0238    1.4390   51.9627 H       1  ZINC000980108339    0.1200
     21 C21        -3.8658    3.6405   51.5186 C.3     1  ZINC000980108339   -0.1700
     22 C22        -3.1816    2.8358   50.4107 C.3     1  ZINC000980108339   -0.1200
     23 H23        -3.4071    3.1067   49.3793 H       1  ZINC000980108339    0.1000
     24 C24        -1.7535    2.3512   50.6686 C.3     1  ZINC000980108339   -0.1300
     25 C25        -0.6968    2.6714   49.6094 C.3     1  ZINC000980108339   -0.1800
     26 C26        -0.6872    3.4122   50.9480 C.3     1  ZINC000980108339   -0.1800
     27 C27        -7.3512    3.7441   54.6757 C.3     1  ZINC000980108339   -0.1400
     28 N28        -8.5249    0.2582   61.1043 N.am    1  ZINC000980108339   -0.7200
     29 C29        -9.6457   -0.4020   61.4244 C.2     1  ZINC000980108339    0.7000
     30 O30       -10.1201   -0.3989   62.5438 O.2     1  ZINC000980108339   -0.5800
     31 H31       -11.8092   -1.8522   61.4856 H       1  ZINC000980108339    0.0900
     32 H32       -12.1517   -1.4810   59.7788 H       1  ZINC000980108339    0.0600
     33 H33       -11.1809   -2.9120   60.2009 H       1  ZINC000980108339    0.0600
     34 H34        -8.9774   -1.8167   58.8360 H       1  ZINC000980108339    0.1000
     35 H35        -9.9557   -0.3738   58.4195 H       1  ZINC000980108339    0.0900
     36 H36        -7.1516    0.6988   57.3733 H       1  ZINC000980108339    0.4000
     37 H37        -8.6459    3.1489   57.0379 H       1  ZINC000980108339    0.0700
     38 H38        -6.9488    3.4346   57.4921 H       1  ZINC000980108339    0.0700
     39 H39        -8.1157    0.7964   54.4855 H       1  ZINC000980108339    0.0800
     40 H40        -9.3132    2.0358   55.0612 H       1  ZINC000980108339    0.1000
     41 H41        -6.1242    1.6663   53.1147 H       1  ZINC000980108339    0.4000
     42 H42        -5.8262    0.9310   50.3957 H       1  ZINC000980108339    0.1000
     43 H43        -5.6561    2.5079   49.5878 H       1  ZINC000980108339    0.1000
     44 H44        -4.5414    4.4406   51.2159 H       1  ZINC000980108339    0.0900
     45 H45        -3.2984    3.8240   52.4310 H       1  ZINC000980108339    0.1000
     46 H46        -1.6674    1.4004   51.1945 H       1  ZINC000980108339    0.1000
     47 H47         0.0847    1.9310   49.4383 H       1  ZINC000980108339    0.0900
     48 H48        -1.0191    3.2272   48.7289 H       1  ZINC000980108339    0.0900
     49 H49        -1.0031    4.4554   50.9482 H       1  ZINC000980108339    0.0900
     50 H50         0.1006    3.1593   51.6576 H       1  ZINC000980108339    0.0900
     51 H51        -8.1034    4.4502   55.0275 H       1  ZINC000980108339    0.1000
     52 H52        -6.4010    4.2210   54.4355 H       1  ZINC000980108339    0.0800
     53 H53        -7.9945    0.7939   61.7145 H       1  ZINC000980108339    0.4400
@<TRIPOS>BOND
     1     1     2    1
     2     1    31    1
     3     1    32    1
     4     1    33    1
     5     2    29   am
     6     2     3    1
     7     3     4    1
     8     3    34    1
     9     3    35    1
    10     4     5    1
    11     4     6    1
    12     4    28    1
    13     6     7    2
    14     6     8   am
    15     8     9    1
    16     8    36    1
    17     9    10    1
    18     9    37    1
    19     9    38    1
    20    10    11    1
    21    10    27    1
    22    10    12    1
    23    12    13    1
    24    12    39    1
    25    12    40    1
    26    13    14    1
    27    13    15    1
    28    13    27    1
    29    15    16   am
    30    15    41    1
    31    16    17    2
    32    16    18    1
    33    18    19    1
    34    18    42    1
    35    18    43    1
    36    19    20    1
    37    19    22    1
    38    19    21    1
    39    21    22    1
    40    21    44    1
    41    21    45    1
    42    22    23    1
    43    22    24    1
    44    24    26    1
    45    24    25    1
    46    24    46    1
    47    25    26    1
    48    25    47    1
    49    25    48    1
    50    26    49    1
    51    26    50    1
    52    27    51    1
    53    27    52    1
    54    28    29   am
    55    28    53    1
    56    29    30    2
@<TRIPOS>SUBSTRUCTURE
     1 ZINC000980108339        1 TEMP              0 ****  ****    0 ROOT


##########                                Name:    ZINC000439870054
##########                DOCK_Rotatable_Bonds:                   5
##########                         Heavy_Atoms:                  27
##########                    Molecular_Weight:             421.974
##########                DOCK_Rotatable_Bonds:                   5
##########                       Formal_Charge:           0.0200003
##########                     HBond_Acceptors:                   9
##########                        HBond_Donors:                   0
##########                         Heavy_Atoms:                  27
##########                          Grid_Score:          -30.582880
##########                     Grid_vdw_energy:          -28.690279
##########                      Grid_es_energy:           -1.892602
##########           Internal_energy_repulsive:           62.643005

@<TRIPOS>MOLECULE
ZINC000439870054
 47 50 1 0 0
SMALL
USER_CHARGES


@<TRIPOS>ATOM
      1 C1        -14.9862   -1.4738   59.9353 C.3     1  ZINC000439870054   -0.1400
      2 C2        -14.2286   -0.4694   60.8059 C.3     1  ZINC000439870054    0.0000
      3 C3        -14.8574   -0.4266   62.2001 C.3     1  ZINC000439870054   -0.1400
      4 C4        -12.7858   -0.8899   60.9183 C.2     1  ZINC000439870054    0.1900
      5 N5        -12.3457   -2.0720   61.2653 N.2     1  ZINC000439870054   -0.2900
      6 N6        -11.0565   -2.0762   61.2576 N.2     1  ZINC000439870054   -0.2700
      7 C7        -10.6232   -0.9040   60.9098 C.2     1  ZINC000439870054    0.1600
      8 C8         -9.1972   -0.4276   60.7727 C.3     1  ZINC000439870054    0.2400
      9 H9         -8.7403   -0.3328   61.7577 H       1  ZINC000439870054    0.1100
     10 C10        -8.3971   -1.4137   59.9192 C.3     1  ZINC000439870054   -0.1300
     11 N11        -9.2453    0.8900   60.1109 N.am    1  ZINC000439870054   -0.6300
     12 C12        -8.3771    1.2048   59.1295 C.2     1  ZINC000439870054    0.5300
     13 O13        -7.5407    0.3996   58.7785 O.2     1  ZINC000439870054   -0.4900
     14 C14        -8.4455    2.5571   58.4680 C.3     1  ZINC000439870054   -0.0700
     15 C15        -7.6071    2.5468   57.2157 C.2     1  ZINC000439870054    0.0900
     16 C16        -8.1460    2.3927   56.0028 C.2     1  ZINC000439870054   -0.2400
     17 S17        -6.8479    2.4362   54.8115 S.3     1  ZINC000439870054    0.1300
     18 C18        -5.6741    2.6642   56.1053 C.2     1  ZINC000439870054    0.1400
     19 C19        -4.2209    2.8047   55.9249 C.2     1  ZINC000439870054   -0.1300
     20 C20        -3.5805    2.8207   54.7356 C.2     1  ZINC000439870054   -0.1000
     21 C21        -2.2125    2.9639   54.8204 C.2     1  ZINC000439870054   -0.1200
     22 C22        -1.7291    3.0651   56.0645 C.2     1  ZINC000439870054   -0.1500
     23 Cl23       -0.0521    3.2533   56.4720 Cl      1  ZINC000439870054    0.0000
     24 S24        -3.0489    2.9856   57.2239 S.3     1  ZINC000439870054    0.2500
     25 N25        -6.3019    2.6941   57.2489 N.2     1  ZINC000439870054   -0.4400
     26 C26       -10.2682    1.8502   60.5525 C.3     1  ZINC000439870054    0.0900
     27 C27       -11.6596    1.2793   60.2543 C.3     1  ZINC000439870054    0.0900
     28 N28       -11.7063   -0.1205   60.6745 N.pl3   1  ZINC000439870054   -0.4700
     29 H29       -16.0298   -1.1697   59.8541 H       1  ZINC000439870054    0.0700
     30 H30       -14.5382   -1.5043   58.9421 H       1  ZINC000439870054    0.0500
     31 H31       -14.9304   -2.4630   60.3896 H       1  ZINC000439870054    0.0700
     32 H32       -14.2843    0.5199   60.3517 H       1  ZINC000439870054    0.0800
     33 H33       -14.3176    0.2890   62.8204 H       1  ZINC000439870054    0.0500
     34 H34       -15.9009   -0.1224   62.1188 H       1  ZINC000439870054    0.0700
     35 H35       -14.8016   -1.4158   62.6543 H       1  ZINC000439870054    0.0700
     36 H36        -8.7564   -1.3789   58.8907 H       1  ZINC000439870054    0.0600
     37 H37        -7.3415   -1.1429   59.9446 H       1  ZINC000439870054    0.0900
     38 H38        -8.5232   -2.4217   60.3142 H       1  ZINC000439870054    0.0700
     39 H39        -9.4801    2.7839   58.2107 H       1  ZINC000439870054    0.1100
     40 H40        -8.0666    3.3160   59.1526 H       1  ZINC000439870054    0.1200
     41 H41        -9.1968    2.2633   55.7892 H       1  ZINC000439870054    0.1800
     42 H42        -4.0994    2.7281   53.7929 H       1  ZINC000439870054    0.1500
     43 H43        -1.5772    2.9922   53.9475 H       1  ZINC000439870054    0.1600
     44 H44       -10.1673    2.0224   61.6241 H       1  ZINC000439870054    0.0900
     45 H45       -10.1387    2.7914   60.0181 H       1  ZINC000439870054    0.1200
     46 H46       -12.4119    1.8506   60.7982 H       1  ZINC000439870054    0.1100
     47 H47       -11.8572    1.3414   59.1841 H       1  ZINC000439870054    0.0900
@<TRIPOS>BOND
     1     1     2    1
     2     1    29    1
     3     1    30    1
     4     1    31    1
     5     2     3    1
     6     2     4    1
     7     2    32    1
     8     3    33    1
     9     3    34    1
    10     3    35    1
    11     4    28    1
    12     4     5    2
    13     5     6    1
    14     6     7    2
    15     7    28    1
    16     7     8    1
    17     8     9    1
    18     8    10    1
    19     8    11    1
    20    10    36    1
    21    10    37    1
    22    10    38    1
    23    11    12   am
    24    11    26    1
    25    12    13    2
    26    12    14    1
    27    14    15    1
    28    14    39    1
    29    14    40    1
    30    15    25    1
    31    15    16    2
    32    16    17    1
    33    16    41    1
    34    17    18    1
    35    18    19    1
    36    18    25    2
    37    19    24    1
    38    19    20    2
    39    20    21    1
    40    20    42    1
    41    21    22    2
    42    21    43    1
    43    22    23    1
    44    22    24    1
    45    26    27    1
    46    26    44    1
    47    26    45    1
    48    27    28    1
    49    27    46    1
    50    27    47    1
@<TRIPOS>SUBSTRUCTURE
     1 ZINC000439870054        1 TEMP              0 ****  ****    0 ROOT


##########                                Name:    ZINC000437192871
##########                DOCK_Rotatable_Bonds:                   9
##########                         Heavy_Atoms:                  28
##########                    Molecular_Weight:             423.298
##########                DOCK_Rotatable_Bonds:                   9
##########                       Formal_Charge:         -8.9407e-08
##########                     HBond_Acceptors:                   9
##########                        HBond_Donors:                   1
##########                         Heavy_Atoms:                  28
##########                          Grid_Score:          -30.570177
##########                     Grid_vdw_energy:          -30.414143
##########                      Grid_es_energy:           -0.156034
##########           Internal_energy_repulsive:           16.506340

@<TRIPOS>MOLECULE
ZINC000437192871
 48 50 1 0 0
SMALL
USER_CHARGES


@<TRIPOS>ATOM
      1 C1         -8.2966    1.3195   63.7074 C.3     1  ZINC000437192871   -0.1700
      2 C2         -9.4058    0.2694   63.6170 C.3     1  ZINC000437192871    0.1300
      3 N3         -9.3510   -0.3874   62.3086 N.pl3   1  ZINC000437192871   -0.3600
      4 C4        -10.4007   -0.9005   61.6333 C.2     1  ZINC000437192871    0.0700
      5 C5         -9.9326   -1.4154   60.4728 C.2     1  ZINC000437192871   -0.2700
      6 C6        -10.7561   -2.0901   59.4062 C.3     1  ZINC000437192871    0.1900
      7 N7        -12.0732   -1.4530   59.3302 N.am    1  ZINC000437192871   -0.6000
      8 C8        -12.2796   -0.3002   58.4501 C.3     1  ZINC000437192871    0.1100
      9 C9        -10.9735    0.4872   58.3264 C.3     1  ZINC000437192871    0.0600
     10 O10       -11.1759    1.6144   57.4719 O.3     1  ZINC000437192871   -0.5600
     11 C11       -13.0950   -1.9276   60.0699 C.2     1  ZINC000437192871    0.6000
     12 O12       -12.9238   -2.8849   60.8003 O.2     1  ZINC000437192871   -0.5000
     13 C13       -14.4191   -1.2872   59.9934 C.2     1  ZINC000437192871   -0.2200
     14 C14       -14.9312   -0.2847   60.7777 C.2     1  ZINC000437192871    0.0100
     15 C15       -14.2380    0.4059   61.9240 C.3     1  ZINC000437192871   -0.0800
     16 O16       -16.1635   -0.0402   60.3263 O.3     1  ZINC000437192871    0.1100
     17 N17       -16.4785   -0.7361   59.3924 N.2     1  ZINC000437192871   -0.3200
     18 C18       -15.5222   -1.5612   59.0486 C.2     1  ZINC000437192871    0.0800
     19 C19       -15.5442   -2.5608   57.9537 C.ar    1  ZINC000437192871   -0.0200
     20 C20       -15.6684   -3.9174   58.2478 C.ar    1  ZINC000437192871   -0.0700
     21 C21       -15.6889   -4.8437   57.2253 C.ar    1  ZINC000437192871   -0.1000
     22 C22       -15.5865   -4.4282   55.9085 C.ar    1  ZINC000437192871   -0.0100
     23 Cl23      -15.6136   -5.5995   54.6274 Cl      1  ZINC000437192871   -0.0500
     24 C24       -15.4629   -3.0821   55.6098 C.ar    1  ZINC000437192871   -0.1100
     25 C25       -15.4466   -2.1462   56.6250 C.ar    1  ZINC000437192871    0.0000
     26 Cl26      -15.2922   -0.4583   56.2497 Cl      1  ZINC000437192871   -0.0300
     27 C27        -8.5495   -1.2101   60.4377 C.2     1  ZINC000437192871    0.0600
     28 N28        -8.2006   -0.5886   61.5350 N.2     1  ZINC000437192871   -0.2900
     29 H29        -8.3375    1.8081   64.6808 H       1  ZINC000437192871    0.0800
     30 H30        -7.3276    0.8359   63.5839 H       1  ZINC000437192871    0.0600
     31 H31        -8.4348    2.0624   62.9218 H       1  ZINC000437192871    0.0700
     32 H32        -9.2677   -0.4735   64.4026 H       1  ZINC000437192871    0.1000
     33 H33       -10.3748    0.7529   63.7404 H       1  ZINC000437192871    0.0900
     34 H34       -11.4299   -0.9003   61.9605 H       1  ZINC000437192871    0.1600
     35 H35       -10.2516   -1.9971   58.4444 H       1  ZINC000437192871    0.0900
     36 H36       -10.8764   -3.1449   59.6530 H       1  ZINC000437192871    0.0800
     37 H37       -12.5898   -0.6466   57.4642 H       1  ZINC000437192871    0.1000
     38 H38       -13.0533    0.3431   58.8693 H       1  ZINC000437192871    0.1000
     39 H39       -10.6614    0.8304   59.3128 H       1  ZINC000437192871    0.0600
     40 H40       -10.2007   -0.1550   57.9039 H       1  ZINC000437192871    0.0500
     41 H41       -10.3878    2.1609   57.3483 H       1  ZINC000437192871    0.3800
     42 H42       -13.7699    1.3228   61.5661 H       1  ZINC000437192871    0.1000
     43 H43       -14.9674    0.6479   62.6969 H       1  ZINC000437192871    0.0900
     44 H44       -13.4753   -0.2538   62.3378 H       1  ZINC000437192871    0.0900
     45 H45       -15.7481   -4.2431   59.2743 H       1  ZINC000437192871    0.1600
     46 H46       -15.7848   -5.8952   57.4526 H       1  ZINC000437192871    0.1500
     47 H47       -15.3834   -2.7632   54.5811 H       1  ZINC000437192871    0.1500
     48 H48        -7.8851   -1.5085   59.6404 H       1  ZINC000437192871    0.1800
@<TRIPOS>BOND
     1     1     2    1
     2     1    29    1
     3     1    30    1
     4     1    31    1
     5     2     3    1
     6     2    32    1
     7     2    33    1
     8     3    28    1
     9     3     4    1
    10     4     5    2
    11     4    34    1
    12     5     6    1
    13     5    27    1
    14     6     7    1
    15     6    35    1
    16     6    36    1
    17     7     8    1
    18     7    11   am
    19     8     9    1
    20     8    37    1
    21     8    38    1
    22     9    10    1
    23     9    39    1
    24     9    40    1
    25    10    41    1
    26    11    12    2
    27    11    13    1
    28    13    18    1
    29    13    14    2
    30    14    15    1
    31    14    16    1
    32    15    42    1
    33    15    43    1
    34    15    44    1
    35    16    17    1
    36    17    18    2
    37    18    19    1
    38    19    25   ar
    39    19    20   ar
    40    20    21   ar
    41    20    45    1
    42    21    22   ar
    43    21    46    1
    44    22    23    1
    45    22    24   ar
    46    24    25   ar
    47    24    47    1
    48    25    26    1
    49    27    28    2
    50    27    48    1
@<TRIPOS>SUBSTRUCTURE
     1 ZINC000437192871        1 TEMP              0 ****  ****    0 ROOT


##########                                Name:    ZINC000045927156
##########                DOCK_Rotatable_Bonds:                   7
##########                         Heavy_Atoms:                  30
##########                    Molecular_Weight:             418.522
##########                DOCK_Rotatable_Bonds:                   7
##########                       Formal_Charge:           0.0200001
##########                     HBond_Acceptors:                   8
##########                        HBond_Donors:                   1
##########                         Heavy_Atoms:                  30
##########                          Grid_Score:          -30.564878
##########                     Grid_vdw_energy:          -30.282515
##########                      Grid_es_energy:           -0.282365
##########           Internal_energy_repulsive:           17.985916

@<TRIPOS>MOLECULE
ZINC000045927156
 52 56 1 0 0
SMALL
USER_CHARGES


@<TRIPOS>ATOM
      1 O1        -11.3613   -0.0724   50.7255 O.2     1  ZINC000045927156   -0.5800
      2 C2        -12.2006    0.2118   51.5582 C.2     1  ZINC000045927156    0.7300
      3 N3        -13.3697    0.7626   51.1760 N.am    1  ZINC000045927156   -0.7400
      4 C4        -13.6270    1.0244   49.7576 C.3     1  ZINC000045927156    0.1700
      5 C5        -13.0342    2.3567   49.3773 C.ar    1  ZINC000045927156   -0.0700
      6 C6        -13.0210    3.3934   50.2911 C.ar    1  ZINC000045927156   -0.1000
      7 C7        -12.4772    4.6157   49.9422 C.ar    1  ZINC000045927156   -0.1100
      8 C8        -11.9463    4.8007   48.6795 C.ar    1  ZINC000045927156   -0.1100
      9 C9        -11.9587    3.7633   47.7656 C.ar    1  ZINC000045927156   -0.1000
     10 C10       -12.4984    2.5401   48.1159 C.ar    1  ZINC000045927156   -0.1000
     11 C11       -12.5119    1.4093   47.1198 C.3     1  ZINC000045927156    0.1700
     12 N12       -13.8796    1.1984   46.6391 N.pl3   1  ZINC000045927156   -0.3800
     13 C13       -14.4575    1.7787   45.5731 C.2     1  ZINC000045927156    0.2500
     14 N14       -15.6820    1.3276   45.4793 N.2     1  ZINC000045927156   -0.5400
     15 C15       -15.9212    0.4614   46.4631 C.2     1  ZINC000045927156    0.2000
     16 N16       -14.8456    0.3448   47.1967 N.2     1  ZINC000045927156   -0.3100
     17 N17       -11.9639   -0.0291   52.8630 N.am    1  ZINC000045927156   -0.6200
     18 C18       -12.8911    0.2598   53.9721 C.3     1  ZINC000045927156    0.1000
     19 C19       -12.4736   -0.7141   55.1021 C.3     1  ZINC000045927156   -0.1300
     20 C20       -10.9303   -0.7320   54.9434 C.3     1  ZINC000045927156   -0.1200
     21 C21       -10.7408   -0.6295   53.4154 C.3     1  ZINC000045927156    0.2300
     22 H22       -10.5863   -1.6227   52.9936 H       1  ZINC000045927156    0.1000
     23 C23        -9.5569    0.2493   53.1035 C.2     1  ZINC000045927156    0.0900
     24 N24        -8.6006   -0.0827   52.3213 N.2     1  ZINC000045927156   -0.4500
     25 C25        -7.6048    0.8044   52.1336 C.ar    1  ZINC000045927156    0.0800
     26 C26        -6.4461    0.7018   51.3381 C.ar    1  ZINC000045927156   -0.0700
     27 C27        -5.5517    1.7278   51.2866 C.ar    1  ZINC000045927156   -0.1100
     28 C28        -5.7627    2.8908   52.0133 C.ar    1  ZINC000045927156   -0.1000
     29 C29        -6.8861    3.0191   52.7991 C.ar    1  ZINC000045927156   -0.0700
     30 C30        -7.8117    1.9801   52.8640 C.ar    1  ZINC000045927156   -0.1800
     31 S31        -9.3280    1.8144   53.7436 S.3     1  ZINC000045927156    0.1200
     32 H32       -14.0409    0.9855   51.8399 H       1  ZINC000045927156    0.3900
     33 H33       -13.1718    0.2387   49.1547 H       1  ZINC000045927156    0.1000
     34 H34       -14.7023    1.0413   49.5805 H       1  ZINC000045927156    0.0700
     35 H35       -13.4358    3.2489   51.2778 H       1  ZINC000045927156    0.1300
     36 H36       -12.4675    5.4260   50.6560 H       1  ZINC000045927156    0.1300
     37 H37       -11.5221    5.7556   48.4067 H       1  ZINC000045927156    0.1300
     38 H38       -11.5442    3.9079   46.7789 H       1  ZINC000045927156    0.1300
     39 H39       -11.8655    1.6586   46.2784 H       1  ZINC000045927156    0.1100
     40 H40       -12.1506    0.4992   47.5985 H       1  ZINC000045927156    0.1000
     41 H41       -13.9924    2.4932   44.9101 H       1  ZINC000045927156    0.2200
     42 H42       -16.8514   -0.0627   46.6254 H       1  ZINC000045927156    0.2200
     43 H43       -12.7789    1.2929   54.3010 H       1  ZINC000045927156    0.0700
     44 H44       -13.9197    0.0676   53.6665 H       1  ZINC000045927156    0.0800
     45 H45       -12.7615   -0.3256   56.0789 H       1  ZINC000045927156    0.0900
     46 H46       -12.8947   -1.7061   54.9383 H       1  ZINC000045927156    0.0800
     47 H47       -10.4807    0.1223   55.4496 H       1  ZINC000045927156    0.0900
     48 H48       -10.5148   -1.6668   55.3194 H       1  ZINC000045927156    0.0900
     49 H49        -6.2659   -0.1964   50.7659 H       1  ZINC000045927156    0.1300
     50 H50        -4.6676    1.6349   50.6733 H       1  ZINC000045927156    0.1400
     51 H51        -5.0449    3.6962   51.9628 H       1  ZINC000045927156    0.1400
     52 H52        -7.0493    3.9244   53.3649 H       1  ZINC000045927156    0.1300
@<TRIPOS>BOND
     1     1     2    2
     2     2     3   am
     3     2    17   am
     4     3     4    1
     5     3    32    1
     6     4     5    1
     7     4    33    1
     8     4    34    1
     9     5    10   ar
    10     5     6   ar
    11     6     7   ar
    12     6    35    1
    13     7     8   ar
    14     7    36    1
    15     8     9   ar
    16     8    37    1
    17     9    10   ar
    18     9    38    1
    19    10    11    1
    20    11    12    1
    21    11    39    1
    22    11    40    1
    23    12    16    1
    24    12    13    1
    25    13    14    2
    26    13    41    1
    27    14    15    1
    28    15    16    2
    29    15    42    1
    30    17    21    1
    31    17    18    1
    32    18    19    1
    33    18    43    1
    34    18    44    1
    35    19    20    1
    36    19    45    1
    37    19    46    1
    38    20    21    1
    39    20    47    1
    40    20    48    1
    41    21    22    1
    42    21    23    1
    43    23    31    1
    44    23    24    2
    45    24    25    1
    46    25    30   ar
    47    25    26   ar
    48    26    27   ar
    49    26    49    1
    50    27    28   ar
    51    27    50    1
    52    28    29   ar
    53    28    51    1
    54    29    30   ar
    55    29    52    1
    56    30    31    1
@<TRIPOS>SUBSTRUCTURE
     1 ZINC000045927156        1 TEMP              0 ****  ****    0 ROOT


##########                                Name:    ZINC000587344575
##########                DOCK_Rotatable_Bonds:                   7
##########                         Heavy_Atoms:                  30
##########                    Molecular_Weight:             408.475
##########                DOCK_Rotatable_Bonds:                   7
##########                       Formal_Charge:          -0.0100002
##########                     HBond_Acceptors:                   7
##########                        HBond_Donors:                   2
##########                         Heavy_Atoms:                  30
##########                          Grid_Score:          -30.542612
##########                     Grid_vdw_energy:          -29.220938
##########                      Grid_es_energy:           -1.321674
##########           Internal_energy_repulsive:           19.701223

@<TRIPOS>MOLECULE
ZINC000587344575
 55 57 1 0 0
SMALL
USER_CHARGES


@<TRIPOS>ATOM
      1 C1         -9.4832    0.1975   52.5664 C.3     1  ZINC000587344575   -0.1200
      2 C2         -8.6853    1.3599   52.0341 C.ar    1  ZINC000587344575    0.0000
      3 C3         -7.3102    1.3005   52.0146 C.ar    1  ZINC000587344575   -0.1600
      4 C4         -6.5728    2.3731   51.5228 C.ar    1  ZINC000587344575    0.1800
      5 N5         -5.1799    2.3093   51.5041 N.am    1  ZINC000587344575   -0.6700
      6 C6         -4.4537    3.2508   52.1387 C.2     1  ZINC000587344575    0.5200
      7 O7         -5.0116    4.1534   52.7259 O.2     1  ZINC000587344575   -0.5000
      8 C8         -2.9484    3.1819   52.1185 C.3     1  ZINC000587344575   -0.1200
      9 H9         -2.5718    2.8629   53.0904 H       1  ZINC000587344575    0.1100
     10 C10        -2.3535    4.5571   51.7377 C.3     1  ZINC000587344575   -0.1200
     11 C11        -1.1628    4.1779   50.8217 C.3     1  ZINC000587344575    0.0400
     12 N12        -1.6808    3.0165   50.0543 N.3     1  ZINC000587344575   -0.4800
     13 C13        -0.6362    2.2642   49.5213 C.ar    1  ZINC000587344575    0.0700
     14 C14         0.3841    1.8092   50.3496 C.ar    1  ZINC000587344575   -0.1200
     15 C15         1.4187    1.0657   49.8264 C.ar    1  ZINC000587344575   -0.0700
     16 C16         1.4432    0.7673   48.4613 C.ar    1  ZINC000587344575    0.0000
     17 C17         2.5176   -0.0061   47.9151 C.1     1  ZINC000587344575    0.2500
     18 N18         3.3698   -0.6195   47.4817 N.1     1  ZINC000587344575   -0.4000
     19 C19         0.4161    1.2252   47.6299 C.ar    1  ZINC000587344575   -0.1000
     20 C20        -0.6189    1.9643   48.1603 C.ar    1  ZINC000587344575    0.1300
     21 F21        -1.6123    2.4071   47.3589 F       1  ZINC000587344575   -0.1200
     22 C22        -2.4721    2.2165   51.0175 C.3     1  ZINC000587344575    0.0500
     23 C23        -7.2219    3.5087   51.0492 C.ar    1  ZINC000587344575   -0.1400
     24 C24        -8.5971    3.5747   51.0657 C.ar    1  ZINC000587344575   -0.0600
     25 C25        -9.3408    2.4971   51.5541 C.ar    1  ZINC000587344575   -0.1600
     26 C26       -10.8152    2.5642   51.5729 C.2     1  ZINC000587344575    0.5600
     27 O27       -11.3761    3.4325   52.2131 O.2     1  ZINC000587344575   -0.5300
     28 N28       -11.5396    1.6630   50.8806 N.am    1  ZINC000587344575   -0.7200
     29 C29       -13.0031    1.7285   50.9007 C.3     1  ZINC000587344575    0.1400
     30 C30       -13.5571    1.1611   49.5924 C.3     1  ZINC000587344575   -0.1600
     31 C31       -13.5342    0.9079   52.0779 C.3     1  ZINC000587344575   -0.1600
     32 H32        -9.8060   -0.4318   51.7371 H       1  ZINC000587344575    0.0800
     33 H33        -8.8638   -0.3872   53.2465 H       1  ZINC000587344575    0.0600
     34 H34       -10.3568    0.5709   53.1007 H       1  ZINC000587344575    0.1000
     35 H35        -6.8031    0.4204   52.3819 H       1  ZINC000587344575    0.1300
     36 H36        -4.7337    1.5874   51.0344 H       1  ZINC000587344575    0.4100
     37 H37        -3.0837    5.1559   51.1931 H       1  ZINC000587344575    0.0900
     38 H38        -2.0047    5.0855   52.6249 H       1  ZINC000587344575    0.0900
     39 H39        -0.9148    5.0016   50.1524 H       1  ZINC000587344575    0.0900
     40 H40        -0.2961    3.8901   51.4169 H       1  ZINC000587344575    0.0600
     41 H41         0.3654    2.0397   51.4046 H       1  ZINC000587344575    0.1400
     42 H42         2.2108    0.7137   50.4707 H       1  ZINC000587344575    0.1400
     43 H43         0.4319    0.9963   46.5746 H       1  ZINC000587344575    0.1500
     44 H44        -1.8489    1.4341   51.4508 H       1  ZINC000587344575    0.0600
     45 H45        -3.3320    1.7739   50.5146 H       1  ZINC000587344575    0.1100
     46 H46        -6.6466    4.3396   50.6685 H       1  ZINC000587344575    0.1400
     47 H47        -9.1005    4.4566   50.6980 H       1  ZINC000587344575    0.1300
     48 H48       -11.0922    0.9710   50.3690 H       1  ZINC000587344575    0.4000
     49 H49       -13.3189    2.7661   51.0094 H       1  ZINC000587344575    0.0900
     50 H50       -13.2414    0.1235   49.4838 H       1  ZINC000587344575    0.0600
     51 H51       -14.6459    1.2099   49.6074 H       1  ZINC000587344575    0.0700
     52 H52       -13.1788    1.7457   48.7537 H       1  ZINC000587344575    0.0600
     53 H53       -13.2184   -0.1297   51.9693 H       1  ZINC000587344575    0.0600
     54 H54       -13.1395    1.3121   53.0100 H       1  ZINC000587344575    0.0600
     55 H55       -14.6229    0.9567   52.0929 H       1  ZINC000587344575    0.0700
@<TRIPOS>BOND
     1     1     2    1
     2     1    32    1
     3     1    33    1
     4     1    34    1
     5     2    25   ar
     6     2     3   ar
     7     3     4   ar
     8     3    35    1
     9     4     5    1
    10     4    23   ar
    11     5     6   am
    12     5    36    1
    13     6     7    2
    14     6     8    1
    15     8     9    1
    16     8    22    1
    17     8    10    1
    18    10    11    1
    19    10    37    1
    20    10    38    1
    21    11    12    1
    22    11    39    1
    23    11    40    1
    24    12    13    1
    25    12    22    1
    26    13    20   ar
    27    13    14   ar
    28    14    15   ar
    29    14    41    1
    30    15    16   ar
    31    15    42    1
    32    16    17    1
    33    16    19   ar
    34    17    18    3
    35    19    20   ar
    36    19    43    1
    37    20    21    1
    38    22    44    1
    39    22    45    1
    40    23    24   ar
    41    23    46    1
    42    24    25   ar
    43    24    47    1
    44    25    26    1
    45    26    27    2
    46    26    28   am
    47    28    29    1
    48    28    48    1
    49    29    30    1
    50    29    31    1
    51    29    49    1
    52    30    50    1
    53    30    51    1
    54    30    52    1
    55    31    53    1
    56    31    54    1
    57    31    55    1
@<TRIPOS>SUBSTRUCTURE
     1 ZINC000587344575        1 TEMP              0 ****  ****    0 ROOT


##########                                Name:    ZINC000532153088
##########                DOCK_Rotatable_Bonds:                  11
##########                         Heavy_Atoms:                  29
##########                    Molecular_Weight:             402.484
##########                DOCK_Rotatable_Bonds:                  11
##########                       Formal_Charge:          -0.0200009
##########                     HBond_Acceptors:                   6
##########                        HBond_Donors:                   1
##########                         Heavy_Atoms:                  29
##########                          Grid_Score:          -30.542288
##########                     Grid_vdw_energy:          -30.950644
##########                      Grid_es_energy:            0.408356
##########           Internal_energy_repulsive:           20.242392

@<TRIPOS>MOLECULE
ZINC000532153088
 57 59 1 0 0
SMALL
USER_CHARGES


@<TRIPOS>ATOM
      1 C1         -7.9535    2.0009   54.0526 C.3     1  ZINC000532153088   -0.1800
      2 C2         -8.7261    1.0009   53.1901 C.3     1  ZINC000532153088    0.0800
      3 C3         -7.7856    0.3930   52.1476 C.3     1  ZINC000532153088   -0.1500
      4 O4         -9.2524   -0.0369   54.0196 O.3     1  ZINC000532153088   -0.3800
      5 C5        -10.1379   -0.9302   53.3414 C.3     1  ZINC000532153088    0.1000
      6 C6        -11.3307   -0.1636   52.8309 C.ar    1  ZINC000532153088   -0.0700
      7 C7        -11.5592   -0.0660   51.4713 C.ar    1  ZINC000532153088   -0.1000
      8 C8        -12.6535    0.6373   51.0030 C.ar    1  ZINC000532153088   -0.1100
      9 C9        -13.5193    1.2423   51.8944 C.ar    1  ZINC000532153088   -0.1200
     10 C10       -13.2913    1.1438   53.2545 C.ar    1  ZINC000532153088   -0.1000
     11 C11       -12.1997    0.4371   53.7228 C.ar    1  ZINC000532153088   -0.1100
     12 C12       -11.9512    0.3297   55.2053 C.3     1  ZINC000532153088    0.1600
     13 N13       -13.1785   -0.1064   55.8759 N.am    1  ZINC000532153088   -0.7300
     14 C14       -13.5863   -1.3865   55.7694 C.2     1  ZINC000532153088    0.5100
     15 O15       -12.9380   -2.1771   55.1171 O.2     1  ZINC000532153088   -0.5000
     16 C16       -14.8479   -1.8355   56.4607 C.3     1  ZINC000532153088    0.0300
     17 N17       -14.6138   -3.1299   57.1146 N.3     1  ZINC000532153088   -0.4800
     18 C18       -14.6436   -2.9941   58.5770 C.3     1  ZINC000532153088    0.1000
     19 C19       -13.2867   -2.5607   59.0690 C.ar    1  ZINC000532153088   -0.1300
     20 C20       -12.1442   -3.0924   58.5018 C.ar    1  ZINC000532153088   -0.0600
     21 C21       -10.8989   -2.6955   58.9516 C.ar    1  ZINC000532153088   -0.1700
     22 C22       -10.7950   -1.7647   59.9713 C.ar    1  ZINC000532153088    0.1300
     23 F23        -9.5777   -1.3765   60.4105 F       1  ZINC000532153088   -0.1300
     24 C24       -11.9388   -1.2313   60.5402 C.ar    1  ZINC000532153088   -0.2000
     25 C25       -13.1850   -1.6255   60.0854 C.ar    1  ZINC000532153088    0.1600
     26 F26       -14.3022   -1.1059   60.6396 F       1  ZINC000532153088   -0.1100
     27 C27       -15.5855   -4.1331   56.6592 C.3     1  ZINC000532153088    0.0200
     28 C28       -15.2891   -4.8578   55.3447 C.3     1  ZINC000532153088   -0.2200
     29 C29       -15.1477   -5.5991   56.6756 C.3     1  ZINC000532153088   -0.1700
     30 H30        -7.5521    2.7924   53.4199 H       1  ZINC000532153088    0.0700
     31 H31        -8.6235    2.4339   54.7953 H       1  ZINC000532153088    0.0600
     32 H32        -7.1343    1.4885   54.5572 H       1  ZINC000532153088    0.0700
     33 H33        -9.5453    1.5132   52.6855 H       1  ZINC000532153088    0.0600
     34 H34        -6.9665   -0.1194   52.6522 H       1  ZINC000532153088    0.0600
     35 H35        -8.3361   -0.3194   51.5331 H       1  ZINC000532153088    0.0600
     36 H36        -7.3842    1.1845   51.5149 H       1  ZINC000532153088    0.0700
     37 H37        -9.6165   -1.3917   52.5029 H       1  ZINC000532153088    0.0600
     38 H38       -10.4721   -1.7045   54.0321 H       1  ZINC000532153088    0.0600
     39 H39       -10.8826   -0.5387   50.7748 H       1  ZINC000532153088    0.1300
     40 H40       -12.8316    0.7142   49.9406 H       1  ZINC000532153088    0.1200
     41 H41       -14.3738    1.7922   51.5286 H       1  ZINC000532153088    0.1300
     42 H42       -13.9677    1.6168   53.9510 H       1  ZINC000532153088    0.1300
     43 H43       -11.1591   -0.3962   55.3893 H       1  ZINC000532153088    0.0800
     44 H44       -11.6504    1.3023   55.5948 H       1  ZINC000532153088    0.0800
     45 H45       -13.6976    0.5264   56.3967 H       1  ZINC000532153088    0.4000
     46 H46       -15.1345   -1.0969   57.2094 H       1  ZINC000532153088    0.0700
     47 H47       -15.6474   -1.9383   55.7270 H       1  ZINC000532153088    0.1100
     48 H48       -15.3870   -2.2480   58.8575 H       1  ZINC000532153088    0.0900
     49 H49       -14.9036   -3.9528   59.0257 H       1  ZINC000532153088    0.0500
     50 H50       -12.2243   -3.8189   57.7066 H       1  ZINC000532153088    0.1400
     51 H51       -10.0066   -3.1119   58.5080 H       1  ZINC000532153088    0.1400
     52 H52       -11.8587   -0.5051   61.3356 H       1  ZINC000532153088    0.1500
     53 H53       -16.6282   -3.9167   56.8910 H       1  ZINC000532153088    0.1200
     54 H54       -16.1372   -5.1182   54.7112 H       1  ZINC000532153088    0.1000
     55 H55       -14.3732   -4.5901   54.8177 H       1  ZINC000532153088    0.1000
     56 H56       -14.1386   -5.8191   57.0243 H       1  ZINC000532153088    0.1000
     57 H57       -15.9026   -6.3471   56.9178 H       1  ZINC000532153088    0.1000
@<TRIPOS>BOND
     1     1     2    1
     2     1    30    1
     3     1    31    1
     4     1    32    1
     5     2     3    1
     6     2     4    1
     7     2    33    1
     8     3    34    1
     9     3    35    1
    10     3    36    1
    11     4     5    1
    12     5     6    1
    13     5    37    1
    14     5    38    1
    15     6    11   ar
    16     6     7   ar
    17     7     8   ar
    18     7    39    1
    19     8     9   ar
    20     8    40    1
    21     9    10   ar
    22     9    41    1
    23    10    11   ar
    24    10    42    1
    25    11    12    1
    26    12    13    1
    27    12    43    1
    28    12    44    1
    29    13    14   am
    30    13    45    1
    31    14    15    2
    32    14    16    1
    33    16    17    1
    34    16    46    1
    35    16    47    1
    36    17    18    1
    37    17    27    1
    38    18    19    1
    39    18    48    1
    40    18    49    1
    41    19    25   ar
    42    19    20   ar
    43    20    21   ar
    44    20    50    1
    45    21    22   ar
    46    21    51    1
    47    22    23    1
    48    22    24   ar
    49    24    25   ar
    50    24    52    1
    51    25    26    1
    52    27    29    1
    53    27    28    1
    54    27    53    1
    55    28    29    1
    56    28    54    1
    57    28    55    1
    58    29    56    1
    59    29    57    1
@<TRIPOS>SUBSTRUCTURE
     1 ZINC000532153088        1 TEMP              0 ****  ****    0 ROOT


##########                                Name:    ZINC000963156778
##########                DOCK_Rotatable_Bonds:                   6
##########                         Heavy_Atoms:                  24
##########                    Molecular_Weight:             349.414
##########                DOCK_Rotatable_Bonds:                   6
##########                       Formal_Charge:         -0.00999984
##########                     HBond_Acceptors:                   9
##########                        HBond_Donors:                   2
##########                         Heavy_Atoms:                  24
##########                          Grid_Score:          -30.530409
##########                     Grid_vdw_energy:          -29.327833
##########                      Grid_es_energy:           -1.202575
##########           Internal_energy_repulsive:            7.021765

@<TRIPOS>MOLECULE
ZINC000963156778
 43 46 1 0 0
SMALL
USER_CHARGES


@<TRIPOS>ATOM
      1 C1        -16.3406   -2.8667   58.6419 C.3     1  ZINC000963156778   -0.0800
      2 C2        -15.1281   -2.6297   59.5051 C.2     1  ZINC000963156778    0.0300
      3 C3        -13.8549   -2.7245   59.0560 C.2     1  ZINC000963156778   -0.2600
      4 C4        -13.3863   -3.0690   57.6658 C.3     1  ZINC000963156778    0.1300
      5 N5        -13.3203   -1.8463   56.8542 N.3     1  ZINC000963156778   -0.5000
      6 C6        -12.7505   -2.1286   55.5116 C.3     1  ZINC000963156778    0.0600
      7 C7        -12.2490   -0.7589   55.0061 C.3     1  ZINC000963156778   -0.1700
      8 H8        -12.7362   -0.3354   54.1278 H       1  ZINC000963156778    0.1200
      9 C9        -12.0057    0.0744   56.2812 C.3     1  ZINC000963156778   -0.1700
     10 H10       -12.2989    1.1222   56.3471 H       1  ZINC000963156778    0.1200
     11 C11       -12.3806   -0.8620   57.4499 C.3     1  ZINC000963156778    0.0600
     12 C12       -10.8159   -0.3450   55.3464 C.3     1  ZINC000963156778    0.1200
     13 H13       -10.1385   -1.1171   55.7112 H       1  ZINC000963156778    0.1400
     14 N14       -10.1978    0.7021   54.5292 N.am    1  ZINC000963156778   -0.7000
     15 C15        -9.6262    0.3872   53.3499 C.2     1  ZINC000963156778    0.5100
     16 O16        -9.6248   -0.7628   52.9647 O.2     1  ZINC000963156778   -0.5000
     17 C17        -8.9888    1.4640   52.5101 C.3     1  ZINC000963156778   -0.1300
     18 C18        -7.4719    1.4333   52.7069 C.3     1  ZINC000963156778   -0.1100
     19 H19        -7.2225    1.0597   53.7001 H       1  ZINC000963156778    0.1300
     20 C20        -6.8674    2.8350   52.4867 C.3     1  ZINC000963156778   -0.1600
     21 C21        -5.9307    2.6371   51.3150 C.2     1  ZINC000963156778    0.5300
     22 O22        -5.2448    3.5003   50.8108 O.2     1  ZINC000963156778   -0.4800
     23 N23        -5.9789    1.3577   50.9237 N.am    1  ZINC000963156778   -0.6900
     24 C24        -6.8134    0.5874   51.6391 C.2     1  ZINC000963156778    0.5200
     25 O25        -7.0086   -0.5949   51.4556 O.2     1  ZINC000963156778   -0.4500
     26 S26       -12.8936   -2.3603   60.4365 S.3     1  ZINC000963156778    0.4500
     27 N27       -14.0952   -2.1308   61.4128 N.2     1  ZINC000963156778   -0.2900
     28 N28       -15.1894   -2.3019   60.7796 N.2     1  ZINC000963156778   -0.2400
     29 H29       -16.6450   -1.9287   58.1776 H       1  ZINC000963156778    0.0900
     30 H30       -16.0984   -3.5939   57.8669 H       1  ZINC000963156778    0.0800
     31 H31       -17.1553   -3.2489   59.2569 H       1  ZINC000963156778    0.0800
     32 H32       -12.3972   -3.5243   57.7181 H       1  ZINC000963156778    0.1000
     33 H33       -14.0853   -3.7703   57.2101 H       1  ZINC000963156778    0.0700
     34 H34       -11.9212   -2.8315   55.5907 H       1  ZINC000963156778    0.0600
     35 H35       -13.5201   -2.5206   54.8468 H       1  ZINC000963156778    0.0800
     36 H36       -12.8718   -0.3003   58.2445 H       1  ZINC000963156778    0.1000
     37 H37       -11.4934   -1.3666   57.8324 H       1  ZINC000963156778    0.0500
     38 H38       -10.1999    1.6220   54.8368 H       1  ZINC000963156778    0.4000
     39 H39        -9.2226    1.2916   51.4596 H       1  ZINC000963156778    0.1000
     40 H40        -9.3749    2.4373   52.8133 H       1  ZINC000963156778    0.1200
     41 H41        -7.6475    3.5542   52.2369 H       1  ZINC000963156778    0.1200
     42 H42        -6.3151    3.1576   53.3693 H       1  ZINC000963156778    0.1300
     43 H43        -5.4528    1.0147   50.1845 H       1  ZINC000963156778    0.4200
@<TRIPOS>BOND
     1     1     2    1
     2     1    29    1
     3     1    30    1
     4     1    31    1
     5     2    28    1
     6     2     3    2
     7     3     4    1
     8     3    26    1
     9     4     5    1
    10     4    32    1
    11     4    33    1
    12     5    11    1
    13     5     6    1
    14     6     7    1
    15     6    34    1
    16     6    35    1
    17     7     8    1
    18     7    12    1
    19     7     9    1
    20     9    10    1
    21     9    11    1
    22     9    12    1
    23    11    36    1
    24    11    37    1
    25    12    13    1
    26    12    14    1
    27    14    15   am
    28    14    38    1
    29    15    16    2
    30    15    17    1
    31    17    18    1
    32    17    39    1
    33    17    40    1
    34    18    19    1
    35    18    24    1
    36    18    20    1
    37    20    21    1
    38    20    41    1
    39    20    42    1
    40    21    22    2
    41    21    23   am
    42    23    24   am
    43    23    43    1
    44    24    25    2
    45    26    27    1
    46    27    28    2
@<TRIPOS>SUBSTRUCTURE
     1 ZINC000963156778        1 TEMP              0 ****  ****    0 ROOT


##########                                Name:    ZINC000864730443
##########                DOCK_Rotatable_Bonds:                  10
##########                         Heavy_Atoms:                  25
##########                    Molecular_Weight:             356.462
##########                DOCK_Rotatable_Bonds:                  10
##########                       Formal_Charge:           0.0299988
##########                     HBond_Acceptors:                   7
##########                        HBond_Donors:                   2
##########                         Heavy_Atoms:                  25
##########                          Grid_Score:          -30.498077
##########                     Grid_vdw_energy:          -28.754065
##########                      Grid_es_energy:           -1.744012
##########           Internal_energy_repulsive:           18.673574

@<TRIPOS>MOLECULE
ZINC000864730443
 57 58 1 0 0
SMALL
USER_CHARGES


@<TRIPOS>ATOM
      1 C1         -3.1751    3.2152   54.0997 C.3     1  ZINC000864730443   -0.1800
      2 C2         -3.5728    3.5241   52.6549 C.3     1  ZINC000864730443    0.1400
      3 C3         -4.5759    4.6792   52.6379 C.3     1  ZINC000864730443   -0.1800
      4 C4         -2.3285    3.9174   51.8563 C.3     1  ZINC000864730443   -0.1400
      5 O5         -4.1793    2.3476   52.0578 O.3     1  ZINC000864730443   -0.3600
      6 C6         -5.4151    2.4913   51.5433 C.2     1  ZINC000864730443    0.6500
      7 O7         -5.5572    2.9154   50.4134 O.2     1  ZINC000864730443   -0.5700
      8 N8         -6.4945    2.1647   52.2813 N.am    1  ZINC000864730443   -0.7100
      9 C9         -7.8392    2.3194   51.7207 C.3     1  ZINC000864730443    0.1500
     10 C10        -8.8471    1.5777   52.6010 C.3     1  ZINC000864730443   -0.1300
     11 C11        -8.7605    2.0969   54.0130 C.2     1  ZINC000864730443    0.5300
     12 O12        -9.3122    3.1348   54.3123 O.2     1  ZINC000864730443   -0.5300
     13 N13        -8.0700    1.4081   54.9432 N.am    1  ZINC000864730443   -0.7200
     14 C14        -7.9859    1.9130   56.3159 C.3     1  ZINC000864730443    0.1200
     15 C15        -9.1981    1.4273   57.1131 C.3     1  ZINC000864730443   -0.1300
     16 C16        -8.8100    1.2667   58.5843 C.3     1  ZINC000864730443    0.0800
     17 H17        -8.3879    2.1959   58.9671 H       1  ZINC000864730443    0.0800
     18 C18       -10.0440    0.8505   59.4238 C.3     1  ZINC000864730443   -0.1500
     19 C19        -9.3588    0.1416   60.6237 C.3     1  ZINC000864730443   -0.1600
     20 C20        -8.1289   -0.5131   59.9586 C.3     1  ZINC000864730443    0.0500
     21 O21        -7.8696    0.1917   58.7374 O.3     1  ZINC000864730443   -0.3800
     22 C22       -10.2620    1.8002   52.0581 C.3     1  ZINC000864730443   -0.1000
     23 C23       -11.2532    0.9907   52.8999 C.3     1  ZINC000864730443   -0.1600
     24 C24       -10.8465   -0.4850   52.8741 C.3     1  ZINC000864730443    0.0600
     25 O25        -9.5102   -0.6180   53.3625 O.3     1  ZINC000864730443   -0.3700
     26 C26        -8.5333    0.0793   52.5867 C.3     1  ZINC000864730443    0.0800
     27 H27        -4.0616    2.9351   54.6686 H       1  ZINC000864730443    0.0900
     28 H28        -2.4605    2.3923   54.1118 H       1  ZINC000864730443    0.0600
     29 H29        -2.7199    4.0984   54.5479 H       1  ZINC000864730443    0.0700
     30 H30        -4.1207    5.5623   53.0861 H       1  ZINC000864730443    0.0700
     31 H31        -4.8592    4.8992   51.6086 H       1  ZINC000864730443    0.0600
     32 H32        -5.4624    4.3990   53.2068 H       1  ZINC000864730443    0.0900
     33 H33        -1.6138    3.0944   51.8685 H       1  ZINC000864730443    0.0700
     34 H34        -2.6118    4.1374   50.8270 H       1  ZINC000864730443    0.0700
     35 H35        -1.8732    4.8005   52.3046 H       1  ZINC000864730443    0.0800
     36 H36        -6.3811    1.8273   53.1836 H       1  ZINC000864730443    0.4100
     37 H37        -8.0981    3.3776   51.6843 H       1  ZINC000864730443    0.0900
     38 H38        -7.8626    1.9047   50.7130 H       1  ZINC000864730443    0.0800
     39 H39        -7.6289    0.5781   54.7038 H       1  ZINC000864730443    0.4000
     40 H40        -7.0725    1.5446   56.7830 H       1  ZINC000864730443    0.0700
     41 H41        -7.9729    3.0028   56.3021 H       1  ZINC000864730443    0.0700
     42 H42       -10.0047    2.1555   57.0275 H       1  ZINC000864730443    0.0800
     43 H43        -9.5318    0.4676   56.7184 H       1  ZINC000864730443    0.0800
     44 H44       -10.6078    1.7233   59.7528 H       1  ZINC000864730443    0.0900
     45 H45       -10.6804    0.1596   58.8707 H       1  ZINC000864730443    0.0800
     46 H46        -9.0521    0.8658   61.3784 H       1  ZINC000864730443    0.0800
     47 H47       -10.0154   -0.6145   61.0541 H       1  ZINC000864730443    0.0800
     48 H48        -7.2657   -0.4347   60.6196 H       1  ZINC000864730443    0.0700
     49 H49        -8.3384   -1.5611   59.7447 H       1  ZINC000864730443    0.0700
     50 H50       -10.5130    2.8593   52.1175 H       1  ZINC000864730443    0.0800
     51 H51       -10.3105    1.4704   51.0203 H       1  ZINC000864730443    0.0800
     52 H52       -11.2403    1.3543   53.9274 H       1  ZINC000864730443    0.0900
     53 H53       -12.2560    1.0995   52.4866 H       1  ZINC000864730443    0.0800
     54 H54       -11.5234   -1.0596   53.5062 H       1  ZINC000864730443    0.1000
     55 H55       -10.8987   -0.8585   51.8515 H       1  ZINC000864730443    0.0500
     56 H56        -8.5553   -0.2870   51.5603 H       1  ZINC000864730443    0.0700
     57 H57        -7.5438   -0.0890   53.0118 H       1  ZINC000864730443    0.1000
@<TRIPOS>BOND
     1     1     2    1
     2     1    27    1
     3     1    28    1
     4     1    29    1
     5     2     3    1
     6     2     4    1
     7     2     5    1
     8     3    30    1
     9     3    31    1
    10     3    32    1
    11     4    33    1
    12     4    34    1
    13     4    35    1
    14     5     6    1
    15     6     7    2
    16     6     8   am
    17     8     9    1
    18     8    36    1
    19     9    10    1
    20     9    37    1
    21     9    38    1
    22    10    26    1
    23    10    11    1
    24    10    22    1
    25    11    12    2
    26    11    13   am
    27    13    14    1
    28    13    39    1
    29    14    15    1
    30    14    40    1
    31    14    41    1
    32    15    16    1
    33    15    42    1
    34    15    43    1
    35    16    17    1
    36    16    21    1
    37    16    18    1
    38    18    19    1
    39    18    44    1
    40    18    45    1
    41    19    20    1
    42    19    46    1
    43    19    47    1
    44    20    21    1
    45    20    48    1
    46    20    49    1
    47    22    23    1
    48    22    50    1
    49    22    51    1
    50    23    24    1
    51    23    52    1
    52    23    53    1
    53    24    25    1
    54    24    54    1
    55    24    55    1
    56    25    26    1
    57    26    56    1
    58    26    57    1
@<TRIPOS>SUBSTRUCTURE
     1 ZINC000864730443        1 TEMP              0 ****  ****    0 ROOT


##########                                Name:    ZINC000432058199
##########                DOCK_Rotatable_Bonds:                   5
##########                         Heavy_Atoms:                  30
##########                    Molecular_Weight:             406.441
##########                DOCK_Rotatable_Bonds:                   5
##########                       Formal_Charge:        -4.02331e-07
##########                     HBond_Acceptors:                   8
##########                        HBond_Donors:                   1
##########                         Heavy_Atoms:                  30
##########                          Grid_Score:          -30.447952
##########                     Grid_vdw_energy:          -30.340654
##########                      Grid_es_energy:           -0.107297
##########           Internal_energy_repulsive:           16.392159

@<TRIPOS>MOLECULE
ZINC000432058199
 52 55 1 0 0
SMALL
USER_CHARGES


@<TRIPOS>ATOM
      1 C1         -2.2989    2.8846   56.2390 C.3     1  ZINC000432058199    0.0300
      2 O2         -2.7080    3.0334   54.8779 O.3     1  ZINC000432058199   -0.3100
      3 C3         -4.0324    2.8840   54.6119 C.ar    1  ZINC000432058199    0.1300
      4 C4         -4.4982    3.0167   53.3112 C.ar    1  ZINC000432058199   -0.1900
      5 C5         -5.8445    2.8655   53.0362 C.ar    1  ZINC000432058199   -0.0800
      6 C6         -6.7330    2.5818   54.0537 C.ar    1  ZINC000432058199   -0.1100
      7 C7         -6.2734    2.4465   55.3624 C.ar    1  ZINC000432058199    0.0100
      8 C8         -7.2267    2.1410   56.4583 C.2     1  ZINC000432058199    0.2100
      9 N9         -6.9297    1.9682   57.7198 N.2     1  ZINC000432058199   -0.3700
     10 O10        -7.9350    1.7327   58.3563 O.3     1  ZINC000432058199    0.1200
     11 C11        -8.9991    1.7313   57.5473 C.2     1  ZINC000432058199    0.1600
     12 C12       -10.4295    1.4812   57.9503 C.3     1  ZINC000432058199    0.2500
     13 H13       -11.0959    2.0262   57.2818 H       1  ZINC000432058199    0.1500
     14 C14       -10.6456    1.9595   59.3874 C.3     1  ZINC000432058199   -0.1700
     15 N15       -10.7173    0.0473   57.8644 N.am    1  ZINC000432058199   -0.5800
     16 C16       -10.0238   -0.8985   58.5082 C.2     1  ZINC000432058199    0.7000
     17 O17        -9.0776   -0.6657   59.2347 O.2     1  ZINC000432058199   -0.5100
     18 N18       -10.4907   -2.1357   58.2618 N.am    1  ZINC000432058199   -0.7200
     19 C19       -11.6314   -1.9803   57.3427 C.3     1  ZINC000432058199    0.1400
     20 H20       -11.4373   -2.4928   56.4005 H       1  ZINC000432058199    0.1400
     21 C21       -12.8970   -2.4989   57.9756 C.ar    1  ZINC000432058199   -0.1000
     22 C22       -13.7949   -3.2335   57.2238 C.ar    1  ZINC000432058199   -0.1000
     23 C23       -14.9558   -3.7091   57.8044 C.ar    1  ZINC000432058199   -0.0800
     24 C24       -15.9348   -4.5096   56.9849 C.3     1  ZINC000432058199   -0.1200
     25 C25       -15.2183   -3.4509   59.1368 C.ar    1  ZINC000432058199   -0.1100
     26 C26       -14.3202   -2.7166   59.8885 C.ar    1  ZINC000432058199   -0.0800
     27 C27       -14.6067   -2.4346   61.3410 C.3     1  ZINC000432058199   -0.1200
     28 C28       -13.1573   -2.2446   59.3091 C.ar    1  ZINC000432058199   -0.1000
     29 C29       -11.7171   -0.4816   57.1316 C.2     1  ZINC000432058199    0.5300
     30 O30       -12.5154    0.1164   56.4424 O.2     1  ZINC000432058199   -0.4500
     31 N31        -8.5657    1.9949   56.3397 N.2     1  ZINC000432058199   -0.4500
     32 C32        -4.9166    2.5937   55.6382 C.ar    1  ZINC000432058199   -0.1200
     33 H33        -1.2209    3.0281   56.3121 H       1  ZINC000432058199    0.1000
     34 H34        -2.8068    3.6272   56.8544 H       1  ZINC000432058199    0.0600
     35 H35        -2.5570    1.8850   56.5887 H       1  ZINC000432058199    0.0600
     36 H36        -3.8069    3.2390   52.5117 H       1  ZINC000432058199    0.1400
     37 H37        -6.2022    2.9701   52.0224 H       1  ZINC000432058199    0.1400
     38 H38        -7.7844    2.4649   53.8358 H       1  ZINC000432058199    0.1400
     39 H39        -9.9792    1.4145   60.0559 H       1  ZINC000432058199    0.0900
     40 H40       -10.4314    3.0264   59.4513 H       1  ZINC000432058199    0.0900
     41 H41       -11.6802    1.7786   59.6788 H       1  ZINC000432058199    0.0900
     42 H42       -10.1437   -2.9681   58.6192 H       1  ZINC000432058199    0.4500
     43 H43       -13.5895   -3.4356   56.1831 H       1  ZINC000432058199    0.1200
     44 H44       -15.6841   -5.5684   57.0514 H       1  ZINC000432058199    0.0700
     45 H45       -16.9434   -4.3504   57.3662 H       1  ZINC000432058199    0.0700
     46 H46       -15.8851   -4.1892   55.9443 H       1  ZINC000432058199    0.0700
     47 H47       -16.1253   -3.8225   59.5903 H       1  ZINC000432058199    0.1300
     48 H48       -14.1890   -3.2323   61.9552 H       1  ZINC000432058199    0.0700
     49 H49       -14.1539   -1.4840   61.6227 H       1  ZINC000432058199    0.0700
     50 H50       -15.6845   -2.3835   61.4955 H       1  ZINC000432058199    0.0700
     51 H51       -12.4557   -1.6709   59.8964 H       1  ZINC000432058199    0.1300
     52 H52        -4.5556    2.4898   56.6507 H       1  ZINC000432058199    0.1400
@<TRIPOS>BOND
     1     1     2    1
     2     1    33    1
     3     1    34    1
     4     1    35    1
     5     2     3    1
     6     3    32   ar
     7     3     4   ar
     8     4     5   ar
     9     4    36    1
    10     5     6   ar
    11     5    37    1
    12     6     7   ar
    13     6    38    1
    14     7     8    1
    15     7    32   ar
    16     8    31    1
    17     8     9    2
    18     9    10    1
    19    10    11    1
    20    11    12    1
    21    11    31    2
    22    12    13    1
    23    12    14    1
    24    12    15    1
    25    14    39    1
    26    14    40    1
    27    14    41    1
    28    15    29   am
    29    15    16   am
    30    16    17    2
    31    16    18   am
    32    18    19    1
    33    18    42    1
    34    19    20    1
    35    19    21    1
    36    19    29    1
    37    21    28   ar
    38    21    22   ar
    39    22    23   ar
    40    22    43    1
    41    23    24    1
    42    23    25   ar
    43    24    44    1
    44    24    45    1
    45    24    46    1
    46    25    26   ar
    47    25    47    1
    48    26    27    1
    49    26    28   ar
    50    27    48    1
    51    27    49    1
    52    27    50    1
    53    28    51    1
    54    29    30    2
    55    32    52    1
@<TRIPOS>SUBSTRUCTURE
     1 ZINC000432058199        1 TEMP              0 ****  ****    0 ROOT


##########                                Name:    ZINC001060578637
##########                DOCK_Rotatable_Bonds:                  10
##########                         Heavy_Atoms:                  25
##########                    Molecular_Weight:             345.401
##########                DOCK_Rotatable_Bonds:                  10
##########                       Formal_Charge:          -0.0400001
##########                     HBond_Acceptors:                   8
##########                        HBond_Donors:                   3
##########                         Heavy_Atoms:                  25
##########                          Grid_Score:          -30.421543
##########                     Grid_vdw_energy:          -26.886782
##########                      Grid_es_energy:           -3.534762
##########           Internal_energy_repulsive:            9.112499

@<TRIPOS>MOLECULE
ZINC001060578637
 48 49 1 0 0
SMALL
USER_CHARGES


@<TRIPOS>ATOM
      1 C1        -12.7240    1.5874   46.9703 C.3     1  ZINC001060578637   -0.1500
      2 C2        -13.2542    2.0343   48.3341 C.3     1  ZINC001060578637   -0.1300
      3 C3        -13.7147    0.8103   49.1284 C.3     1  ZINC001060578637    0.0700
      4 H4        -13.3895   -0.0968   48.6189 H       1  ZINC001060578637    0.0900
      5 O5        -15.1402    0.8158   49.2279 O.3     1  ZINC001060578637   -0.3600
      6 C6        -15.7953    0.0257   48.2335 C.3     1  ZINC001060578637    0.0300
      7 C7        -13.1145    0.8531   50.5100 C.2     1  ZINC001060578637    0.5000
      8 O8        -13.6840    1.4480   51.4004 O.2     1  ZINC001060578637   -0.5200
      9 N9        -11.9449    0.2303   50.7562 N.am    1  ZINC001060578637   -0.7300
     10 C10       -11.3622    0.2705   52.0998 C.3     1  ZINC001060578637    0.1600
     11 C11       -10.0212    0.9557   52.0456 C.ar    1  ZINC001060578637   -0.1100
     12 C12        -9.9485    2.3142   51.8006 C.ar    1  ZINC001060578637   -0.0900
     13 C13        -8.7183    2.9427   51.7508 C.ar    1  ZINC001060578637   -0.1100
     14 C14        -7.5608    2.2128   51.9466 C.ar    1  ZINC001060578637   -0.0900
     15 C15        -6.2196    2.8978   51.8919 C.3     1  ZINC001060578637    0.1800
     16 H16        -6.3605    3.9545   51.6642 H       1  ZINC001060578637    0.1000
     17 C17        -5.3608    2.2516   50.8031 C.3     1  ZINC001060578637   -0.1600
     18 N18        -5.5489    2.7626   53.1873 N.am    1  ZINC001060578637   -0.7000
     19 C19        -4.9486    3.8301   53.7501 C.2     1  ZINC001060578637    0.6100
     20 O20        -4.9623    4.9050   53.1818 O.2     1  ZINC001060578637   -0.5300
     21 C21        -4.2751    3.6944   55.0547 C.2     1  ZINC001060578637    0.1200
     22 N22        -4.0204    4.6622   55.9091 N.2     1  ZINC001060578637   -0.2400
     23 N23        -3.4227    4.1777   56.9393 N.2     1  ZINC001060578637   -0.2900
     24 C24        -3.2656    2.8841   56.7981 C.2     1  ZINC001060578637    0.1900
     25 N25        -3.8002    2.5347   55.6112 N.pl3   1  ZINC001060578637   -0.5500
     26 C26        -7.6336    0.8545   52.1930 C.ar    1  ZINC001060578637   -0.1100
     27 C27        -8.8639    0.2267   52.2465 C.ar    1  ZINC001060578637   -0.0900
     28 H28       -12.3673    2.4560   46.4168 H       1  ZINC001060578637    0.0600
     29 H29       -11.9029    0.8847   47.1122 H       1  ZINC001060578637    0.0500
     30 H30       -13.5240    1.1031   46.4103 H       1  ZINC001060578637    0.0600
     31 H31       -12.4629    2.5461   48.8817 H       1  ZINC001060578637    0.0800
     32 H32       -14.0954    2.7129   48.1924 H       1  ZINC001060578637    0.0800
     33 H33       -16.8687    0.0194   48.4235 H       1  ZINC001060578637    0.0900
     34 H34       -15.6032    0.4497   47.2480 H       1  ZINC001060578637    0.0500
     35 H35       -15.4137   -0.9947   48.2708 H       1  ZINC001060578637    0.0400
     36 H36       -11.4888   -0.2444   50.0438 H       1  ZINC001060578637    0.4000
     37 H37       -12.0251    0.8214   52.7670 H       1  ZINC001060578637    0.0800
     38 H38       -11.2359   -0.7464   52.4715 H       1  ZINC001060578637    0.0800
     39 H39       -10.8528    2.8845   51.6478 H       1  ZINC001060578637    0.1300
     40 H40        -8.6615    4.0040   51.5588 H       1  ZINC001060578637    0.1300
     41 H41        -5.2201    1.1950   51.0308 H       1  ZINC001060578637    0.0600
     42 H42        -5.8598    2.3522   49.8392 H       1  ZINC001060578637    0.0700
     43 H43        -4.3908    2.7471   50.7635 H       1  ZINC001060578637    0.0700
     44 H44        -5.5370    1.9049   53.6400 H       1  ZINC001060578637    0.4100
     45 H45        -2.7960    2.2179   57.5067 H       1  ZINC001060578637    0.2300
     46 H46        -3.8365    1.6450   55.2267 H       1  ZINC001060578637    0.4400
     47 H47        -6.7293    0.2844   52.3462 H       1  ZINC001060578637    0.1300
     48 H48        -8.9208   -0.8345   52.4389 H       1  ZINC001060578637    0.1300
@<TRIPOS>BOND
     1     1     2    1
     2     1    28    1
     3     1    29    1
     4     1    30    1
     5     2     3    1
     6     2    31    1
     7     2    32    1
     8     3     4    1
     9     3     5    1
    10     3     7    1
    11     5     6    1
    12     6    33    1
    13     6    34    1
    14     6    35    1
    15     7     8    2
    16     7     9   am
    17     9    10    1
    18     9    36    1
    19    10    11    1
    20    10    37    1
    21    10    38    1
    22    11    27   ar
    23    11    12   ar
    24    12    13   ar
    25    12    39    1
    26    13    14   ar
    27    13    40    1
    28    14    15    1
    29    14    26   ar
    30    15    16    1
    31    15    17    1
    32    15    18    1
    33    17    41    1
    34    17    42    1
    35    17    43    1
    36    18    19   am
    37    18    44    1
    38    19    20    2
    39    19    21    1
    40    21    25    1
    41    21    22    2
    42    22    23    1
    43    23    24    2
    44    24    25    1
    45    24    45    1
    46    25    46    1
    47    26    27   ar
    48    26    47    1
    49    27    48    1
@<TRIPOS>SUBSTRUCTURE
     1 ZINC001060578637        1 TEMP              0 ****  ****    0 ROOT


##########                                Name:    ZINC001143596311
##########                DOCK_Rotatable_Bonds:                   9
##########                         Heavy_Atoms:                  21
##########                    Molecular_Weight:             335.811
##########                DOCK_Rotatable_Bonds:                   9
##########                       Formal_Charge:          0.00999959
##########                     HBond_Acceptors:                   9
##########                        HBond_Donors:                   3
##########                         Heavy_Atoms:                  21
##########                          Grid_Score:          -30.401463
##########                     Grid_vdw_energy:          -28.840193
##########                      Grid_es_energy:           -1.561269
##########           Internal_energy_repulsive:           12.741174

@<TRIPOS>MOLECULE
ZINC001143596311
 39 39 1 0 0
SMALL
USER_CHARGES


@<TRIPOS>ATOM
      1 C1          4.8520   -0.6169   51.0501 C.3     1  ZINC001143596311    0.0400
      2 O2          3.7523    0.1451   50.5479 O.3     1  ZINC001143596311   -0.2600
      3 N3          3.0541   -0.4853   49.4274 N.3     1  ZINC001143596311   -0.3700
      4 C4          2.5137   -1.7955   49.8140 C.3     1  ZINC001143596311    0.0000
      5 C5          1.9937    0.3892   48.9088 C.3     1  ZINC001143596311    0.0400
      6 C6          1.0252    0.7420   50.0394 C.3     1  ZINC001143596311   -0.1300
      7 C7         -0.0313    1.7192   49.5197 C.3     1  ZINC001143596311    0.1200
      8 N8         -1.0721    1.8985   50.5349 N.am    1  ZINC001143596311   -0.7200
      9 C9         -2.2558    2.4471   50.1968 C.2     1  ZINC001143596311    0.5600
     10 O10        -2.4603    2.7918   49.0492 O.2     1  ZINC001143596311   -0.5200
     11 C11        -3.3052    2.6295   51.2213 C.ar    1  ZINC001143596311   -0.1500
     12 C12        -4.6464    2.4195   50.8957 C.ar    1  ZINC001143596311   -0.0200
     13 C13        -5.6212    2.5913   51.8561 C.ar    1  ZINC001143596311   -0.1300
     14 C14        -5.2719    2.9716   53.1411 C.ar    1  ZINC001143596311    0.0700
     15 Cl15       -6.5046    3.1859   54.3445 Cl      1  ZINC001143596311   -0.0200
     16 C16        -3.9426    3.1814   53.4702 C.ar    1  ZINC001143596311   -0.6800
     17 S17        -3.5079    3.6646   55.1079 S.o2    1  ZINC001143596311    2.7000
     18 N18        -1.8751    3.9405   55.1205 N.am    1  ZINC001143596311   -1.2500
     19 O19        -4.1292    4.9224   55.3334 O.2     1  ZINC001143596311   -0.9400
     20 O20        -3.7293    2.5292   55.9333 O.2     1  ZINC001143596311   -0.9500
     21 C21        -2.9586    3.0068   52.5203 C.ar    1  ZINC001143596311    0.0500
     22 H22         4.4939   -1.5857   51.3983 H       1  ZINC001143596311    0.0400
     23 H23         5.5846   -0.7642   50.2565 H       1  ZINC001143596311    0.0500
     24 H24         5.3164   -0.0820   51.8786 H       1  ZINC001143596311    0.0900
     25 H25         1.8110   -1.6701   50.6377 H       1  ZINC001143596311    0.0400
     26 H26         1.9998   -2.2420   48.9627 H       1  ZINC001143596311    0.0900
     27 H27         3.3295   -2.4466   50.1281 H       1  ZINC001143596311    0.0800
     28 H28         2.4375    1.3025   48.5124 H       1  ZINC001143596311    0.0500
     29 H29         1.4533   -0.1264   48.1150 H       1  ZINC001143596311    0.0900
     30 H30         0.5370   -0.1650   50.3959 H       1  ZINC001143596311    0.0800
     31 H31         1.5759    1.2043   50.8587 H       1  ZINC001143596311    0.0800
     32 H32         0.4366    2.6800   49.3054 H       1  ZINC001143596311    0.0800
     33 H33        -0.4773    1.3211   48.6084 H       1  ZINC001143596311    0.0800
     34 H34        -0.9093    1.6223   51.4504 H       1  ZINC001143596311    0.4000
     35 H35        -4.9200    2.1236   49.8938 H       1  ZINC001143596311    0.1500
     36 H36        -6.6591    2.4292   51.6054 H       1  ZINC001143596311    0.1600
     37 H37        -1.4367    4.2202   55.9393 H       1  ZINC001143596311    0.4200
     38 H38        -1.3570    3.8224   54.3089 H       1  ZINC001143596311    0.4200
     39 H39        -1.9227    3.1707   52.7779 H       1  ZINC001143596311    0.1700
@<TRIPOS>BOND
     1     1     2    1
     2     1    22    1
     3     1    23    1
     4     1    24    1
     5     2     3    1
     6     3     4    1
     7     3     5    1
     8     4    25    1
     9     4    26    1
    10     4    27    1
    11     5     6    1
    12     5    28    1
    13     5    29    1
    14     6     7    1
    15     6    30    1
    16     6    31    1
    17     7     8    1
    18     7    32    1
    19     7    33    1
    20     8     9   am
    21     8    34    1
    22     9    10    2
    23     9    11    1
    24    11    21   ar
    25    11    12   ar
    26    12    13   ar
    27    12    35    1
    28    13    14   ar
    29    13    36    1
    30    14    15    1
    31    14    16   ar
    32    16    17    1
    33    16    21   ar
    34    17    18   am
    35    17    19    2
    36    17    20    2
    37    18    37    1
    38    18    38    1
    39    21    39    1
@<TRIPOS>SUBSTRUCTURE
     1 ZINC001143596311        1 TEMP              0 ****  ****    0 ROOT


##########                                Name:    ZINC001284642199
##########                DOCK_Rotatable_Bonds:                   8
##########                         Heavy_Atoms:                  25
##########                    Molecular_Weight:             346.516
##########                DOCK_Rotatable_Bonds:                   8
##########                       Formal_Charge:         -3.8743e-07
##########                     HBond_Acceptors:                   5
##########                        HBond_Donors:                   2
##########                         Heavy_Atoms:                  25
##########                          Grid_Score:          -30.400234
##########                     Grid_vdw_energy:          -28.760096
##########                      Grid_es_energy:           -1.640139
##########           Internal_energy_repulsive:           19.112373

@<TRIPOS>MOLECULE
ZINC001284642199
 59 60 1 0 0
SMALL
USER_CHARGES


@<TRIPOS>ATOM
      1 C1          1.7532    0.6641   48.2836 C.3     1  ZINC001284642199   -0.1100
      2 C2          0.4608    1.2647   48.7737 C.ar    1  ZINC001284642199   -0.1900
      3 C3          0.1321    1.2399   50.1199 C.ar    1  ZINC001284642199    0.1500
      4 N4         -1.0113    1.7775   50.5134 N.ar    1  ZINC001284642199   -0.4900
      5 C5         -1.8319    2.3312   49.6432 C.ar    1  ZINC001284642199    0.3100
      6 C6         -3.1242    2.9318   50.1332 C.3     1  ZINC001284642199    0.1300
      7 N7         -3.5243    2.2774   51.3860 N.3     1  ZINC001284642199   -0.6800
      8 C8         -2.9211    2.9473   52.5459 C.3     1  ZINC001284642199    0.0500
      9 C9         -4.0102    3.6711   53.3402 C.3     1  ZINC001284642199    0.1600
     10 H10        -4.3332    4.5556   52.7910 H       1  ZINC001284642199    0.1000
     11 N11        -5.1513    2.7732   53.5345 N.am    1  ZINC001284642199   -0.7200
     12 C12        -6.3832    3.1544   53.1427 C.2     1  ZINC001284642199    0.5200
     13 O13        -6.5469    4.2402   52.6277 O.2     1  ZINC001284642199   -0.5300
     14 C14        -7.5573    2.2314   53.3443 C.3     1  ZINC001284642199   -0.1100
     15 H15        -7.3208    1.5078   54.1244 H       1  ZINC001284642199    0.0900
     16 C16        -8.7823    3.0480   53.7606 C.3     1  ZINC001284642199   -0.1000
     17 C17        -9.9743    2.1110   53.9653 C.3     1  ZINC001284642199   -0.1100
     18 C18       -10.2733    1.3731   52.6587 C.3     1  ZINC001284642199   -0.0900
     19 H19       -10.5098    2.0967   51.8787 H       1  ZINC001284642199    0.0700
     20 C20       -11.4653    0.4359   52.8635 C.3     1  ZINC001284642199   -0.1500
     21 C21        -9.0482    0.5565   52.2424 C.3     1  ZINC001284642199   -0.1100
     22 C22        -7.8562    1.4935   52.0377 C.3     1  ZINC001284642199   -0.1100
     23 C23        -3.4541    4.0913   54.7022 C.3     1  ZINC001284642199   -0.0800
     24 C24        -3.2530    2.8514   55.5756 C.3     1  ZINC001284642199   -0.1400
     25 C25        -2.1129    4.8016   54.5083 C.3     1  ZINC001284642199   -0.1400
     26 C26        -4.4404    5.0414   55.3846 C.3     1  ZINC001284642199   -0.1300
     27 N27        -1.5548    2.3688   48.3552 N.ar    1  ZINC001284642199   -0.5100
     28 C28        -0.4275    1.8557   47.8890 C.ar    1  ZINC001284642199    0.1500
     29 H29         1.5945   -0.3850   48.0340 H       1  ZINC001284642199    0.0800
     30 H30         2.0905    1.2015   47.3974 H       1  ZINC001284642199    0.0700
     31 H31         2.5090    0.7413   49.0651 H       1  ZINC001284642199    0.0700
     32 H32         0.7999    0.7874   50.8380 H       1  ZINC001284642199    0.1700
     33 H33        -3.9008    2.7851   49.3826 H       1  ZINC001284642199    0.1000
     34 H34        -2.9854    3.9986   50.3088 H       1  ZINC001284642199    0.0600
     35 H35        -3.2891    1.2962   51.3726 H       1  ZINC001284642199    0.3400
     36 H36        -2.1802    3.6698   52.2034 H       1  ZINC001284642199    0.0900
     37 H37        -2.4385    2.2063   53.1832 H       1  ZINC001284642199    0.0400
     38 H38        -5.0202    1.9043   53.9453 H       1  ZINC001284642199    0.3900
     39 H39        -9.0188    3.7717   52.9806 H       1  ZINC001284642199    0.0700
     40 H40        -8.5695    3.5738   54.6914 H       1  ZINC001284642199    0.0700
     41 H41       -10.8471    2.6927   54.2619 H       1  ZINC001284642199    0.0700
     42 H42        -9.7379    1.3873   54.7454 H       1  ZINC001284642199    0.0600
     43 H43       -12.3380    1.0178   53.1600 H       1  ZINC001284642199    0.0500
     44 H44       -11.6782   -0.0897   51.9327 H       1  ZINC001284642199    0.0500
     45 H45       -11.2288   -0.2877   53.6435 H       1  ZINC001284642199    0.0500
     46 H46        -8.8117   -0.1672   53.0225 H       1  ZINC001284642199    0.0600
     47 H47        -9.2611    0.0308   51.3117 H       1  ZINC001284642199    0.0700
     48 H48        -8.0927    2.2172   51.2577 H       1  ZINC001284642199    0.0700
     49 H49        -6.9835    0.9118   51.7412 H       1  ZINC001284642199    0.0600
     50 H50        -2.5504    2.1746   55.0893 H       1  ZINC001284642199    0.0600
     51 H51        -2.8569    3.1507   56.5459 H       1  ZINC001284642199    0.0600
     52 H52        -4.2086    2.3454   55.7137 H       1  ZINC001284642199    0.0500
     53 H53        -2.2561    5.6851   53.8861 H       1  ZINC001284642199    0.0600
     54 H54        -1.7167    5.1010   55.4787 H       1  ZINC001284642199    0.0600
     55 H55        -1.4103    4.1248   54.0222 H       1  ZINC001284642199    0.0600
     56 H56        -5.3958    4.5354   55.5227 H       1  ZINC001284642199    0.0500
     57 H57        -4.0441    5.3407   56.3550 H       1  ZINC001284642199    0.0500
     58 H58        -4.5836    5.9248   54.7625 H       1  ZINC001284642199    0.0600
     59 H59        -0.2048    1.8932   46.8328 H       1  ZINC001284642199    0.1700
@<TRIPOS>BOND
     1     1     2    1
     2     1    29    1
     3     1    30    1
     4     1    31    1
     5     2    28   ar
     6     2     3   ar
     7     3     4   ar
     8     3    32    1
     9     4     5   ar
    10     5     6    1
    11     5    27   ar
    12     6     7    1
    13     6    33    1
    14     6    34    1
    15     7     8    1
    16     7    35    1
    17     8     9    1
    18     8    36    1
    19     8    37    1
    20     9    10    1
    21     9    11    1
    22     9    23    1
    23    11    12   am
    24    11    38    1
    25    12    13    2
    26    12    14    1
    27    14    15    1
    28    14    22    1
    29    14    16    1
    30    16    17    1
    31    16    39    1
    32    16    40    1
    33    17    18    1
    34    17    41    1
    35    17    42    1
    36    18    19    1
    37    18    20    1
    38    18    21    1
    39    20    43    1
    40    20    44    1
    41    20    45    1
    42    21    22    1
    43    21    46    1
    44    21    47    1
    45    22    48    1
    46    22    49    1
    47    23    24    1
    48    23    25    1
    49    23    26    1
    50    24    50    1
    51    24    51    1
    52    24    52    1
    53    25    53    1
    54    25    54    1
    55    25    55    1
    56    26    56    1
    57    26    57    1
    58    26    58    1
    59    27    28   ar
    60    28    59    1
@<TRIPOS>SUBSTRUCTURE
     1 ZINC001284642199        1 TEMP              0 ****  ****    0 ROOT


##########                                Name:    ZINC000768148687
##########                DOCK_Rotatable_Bonds:                   8
##########                         Heavy_Atoms:                  25
##########                    Molecular_Weight:             371.307
##########                DOCK_Rotatable_Bonds:                   8
##########                       Formal_Charge:         2.98023e-08
##########                     HBond_Acceptors:                  11
##########                        HBond_Donors:                   0
##########                         Heavy_Atoms:                  25
##########                          Grid_Score:          -30.366903
##########                     Grid_vdw_energy:          -28.005629
##########                      Grid_es_energy:           -2.361275
##########           Internal_energy_repulsive:            7.807522

@<TRIPOS>MOLECULE
ZINC000768148687
 43 44 1 0 0
SMALL
USER_CHARGES


@<TRIPOS>ATOM
      1 C1         -8.9187    0.5329   64.1077 C.3     1  ZINC000768148687   -0.1800
      2 C2         -8.3786    0.4071   62.6818 C.3     1  ZINC000768148687    0.1100
      3 N3         -9.4047   -0.1875   61.8215 N.pl3   1  ZINC000768148687   -0.3100
      4 N4        -10.7876   -0.0883   62.0104 N.2     1  ZINC000768148687   -0.2000
      5 C5        -11.3926   -0.7381   61.0549 C.2     1  ZINC000768148687    0.0200
      6 C6        -12.8834   -0.8799   60.8863 C.3     1  ZINC000768148687    0.5500
      7 F7        -13.2306   -2.2345   60.9282 F       1  ZINC000768148687   -0.1600
      8 F8        -13.5364   -0.1990   61.9193 F       1  ZINC000768148687   -0.1600
      9 F9        -13.2671   -0.3381   59.6549 F       1  ZINC000768148687   -0.1500
     10 C10       -10.4048   -1.2861   60.2055 C.2     1  ZINC000768148687   -0.1800
     11 C11       -10.6408   -2.0968   58.9987 C.2     1  ZINC000768148687    0.5300
     12 O12       -11.1442   -3.1986   59.0957 O.2     1  ZINC000768148687   -0.4700
     13 O13       -10.2986   -1.6168   57.7869 O.3     1  ZINC000768148687   -0.3400
     14 C14       -11.2042   -1.8971   56.6870 C.3     1  ZINC000768148687    0.0200
     15 C15       -11.5053   -0.6013   55.9314 C.3     1  ZINC000768148687    0.0600
     16 N16       -10.6923   -0.5469   54.7091 N.3     1  ZINC000768148687   -0.5300
     17 C17        -9.7403    0.5722   54.7589 C.3     1  ZINC000768148687    0.0100
     18 C18        -8.8752    0.5560   53.4959 C.3     1  ZINC000768148687    0.0600
     19 O19        -9.7210    0.6155   52.3441 O.3     1  ZINC000768148687   -0.3800
     20 C20       -10.6602   -0.4600   52.2634 C.3     1  ZINC000768148687    0.0600
     21 C21       -11.5434   -0.4540   53.5140 C.3     1  ZINC000768148687    0.0100
     22 C22        -9.1764   -0.9141   60.7163 C.2     1  ZINC000768148687    0.0600
     23 C23        -7.8280   -1.2676   60.1437 C.3     1  ZINC000768148687    0.3400
     24 F24        -7.8497   -2.5874   59.6803 F       1  ZINC000768148687   -0.1700
     25 F25        -7.5315   -0.4056   59.0826 F       1  ZINC000768148687   -0.1800
     26 H26        -8.1553    0.9753   64.7477 H       1  ZINC000768148687    0.0900
     27 H27        -9.8043    1.1684   64.1061 H       1  ZINC000768148687    0.0700
     28 H28        -9.1814   -0.4553   64.4852 H       1  ZINC000768148687    0.0700
     29 H29        -8.1159    1.3952   62.3041 H       1  ZINC000768148687    0.1100
     30 H30        -7.4930   -0.2285   62.6834 H       1  ZINC000768148687    0.1200
     31 H31       -10.7412   -2.6140   56.0089 H       1  ZINC000768148687    0.0800
     32 H32       -12.1324   -2.3138   57.0779 H       1  ZINC000768148687    0.0800
     33 H33       -12.5622   -0.5725   55.6663 H       1  ZINC000768148687    0.1100
     34 H34       -11.2663    0.2527   56.5651 H       1  ZINC000768148687    0.0900
     35 H35       -10.2875    1.5133   54.8132 H       1  ZINC000768148687    0.0500
     36 H36        -9.1035    0.4695   55.6376 H       1  ZINC000768148687    0.0900
     37 H37        -8.2067    1.4169   53.5015 H       1  ZINC000768148687    0.1000
     38 H38        -8.2877   -0.3617   53.4690 H       1  ZINC000768148687    0.0600
     39 H39       -11.2828   -0.3338   51.3777 H       1  ZINC000768148687    0.1000
     40 H40       -10.1246   -1.4072   52.2007 H       1  ZINC000768148687    0.0600
     41 H41       -12.2228   -1.3058   53.4838 H       1  ZINC000768148687    0.0800
     42 H42       -12.1194    0.4708   53.5483 H       1  ZINC000768148687    0.0700
     43 H43        -7.0669   -1.1667   60.9174 H       1  ZINC000768148687    0.1500
@<TRIPOS>BOND
     1     1     2    1
     2     1    26    1
     3     1    27    1
     4     1    28    1
     5     2     3    1
     6     2    29    1
     7     2    30    1
     8     3    22    1
     9     3     4    1
    10     4     5    2
    11     5     6    1
    12     5    10    1
    13     6     7    1
    14     6     8    1
    15     6     9    1
    16    10    11    1
    17    10    22    2
    18    11    12    2
    19    11    13    1
    20    13    14    1
    21    14    15    1
    22    14    31    1
    23    14    32    1
    24    15    16    1
    25    15    33    1
    26    15    34    1
    27    16    21    1
    28    16    17    1
    29    17    18    1
    30    17    35    1
    31    17    36    1
    32    18    19    1
    33    18    37    1
    34    18    38    1
    35    19    20    1
    36    20    21    1
    37    20    39    1
    38    20    40    1
    39    21    41    1
    40    21    42    1
    41    22    23    1
    42    23    24    1
    43    23    25    1
    44    23    43    1
@<TRIPOS>SUBSTRUCTURE
     1 ZINC000768148687        1 TEMP              0 ****  ****    0 ROOT


##########                                Name:    ZINC000918875053
##########                DOCK_Rotatable_Bonds:                   6
##########                         Heavy_Atoms:                  26
##########                    Molecular_Weight:             359.357
##########                DOCK_Rotatable_Bonds:                   6
##########                       Formal_Charge:           0.0200003
##########                     HBond_Acceptors:                   8
##########                        HBond_Donors:                   0
##########                         Heavy_Atoms:                  26
##########                          Grid_Score:          -30.364378
##########                     Grid_vdw_energy:          -31.386261
##########                      Grid_es_energy:            1.021884
##########           Internal_energy_repulsive:            8.230937

@<TRIPOS>MOLECULE
ZINC000918875053
 44 47 1 0 0
SMALL
USER_CHARGES


@<TRIPOS>ATOM
      1 C1         -4.2284    4.4962   55.8828 C.3     1  ZINC000918875053   -0.1700
      2 C2         -3.7159    3.1111   55.4827 C.3     1  ZINC000918875053    0.1900
      3 H3         -4.5400    2.3981   55.5058 H       1  ZINC000918875053    0.1400
      4 O4         -3.1630    3.1686   54.1413 O.3     1  ZINC000918875053   -0.3400
      5 C5         -4.0347    3.2883   53.1275 C.2     1  ZINC000918875053    0.4800
      6 O6         -5.2102    3.0804   53.3138 O.2     1  ZINC000918875053   -0.4900
      7 C7         -3.5471    3.6818   51.7570 C.3     1  ZINC000918875053   -0.0900
      8 H8         -4.3744    4.0202   51.1331 H       1  ZINC000918875053    0.1400
      9 C9         -2.4464    4.7639   51.8508 C.3     1  ZINC000918875053   -0.1400
     10 C10        -1.4785    4.4052   50.7450 C.2     1  ZINC000918875053    0.5300
     11 O11        -0.6300    5.1470   50.2966 O.2     1  ZINC000918875053   -0.5000
     12 N12        -1.6951    3.1446   50.3317 N.am    1  ZINC000918875053   -0.5800
     13 C13        -0.9718    2.5116   49.3131 C.ar    1  ZINC000918875053    0.1000
     14 C14        -1.5186    2.3914   48.0434 C.ar    1  ZINC000918875053   -0.0800
     15 C15        -0.8026    1.7668   47.0401 C.ar    1  ZINC000918875053   -0.1200
     16 C16         0.4576    1.2609   47.2991 C.ar    1  ZINC000918875053   -0.0800
     17 C17         1.0070    1.3782   48.5631 C.ar    1  ZINC000918875053   -0.1500
     18 C18         0.2986    2.0071   49.5703 C.ar    1  ZINC000918875053    0.1100
     19 F19         0.8352    2.1222   50.8047 F       1  ZINC000918875053   -0.1300
     20 C20        -2.7881    2.5166   51.0845 C.3     1  ZINC000918875053    0.1200
     21 C21        -2.6455    2.6732   56.4488 C.2     1  ZINC000918875053    0.1800
     22 N22        -2.5000    3.0758   57.6883 N.2     1  ZINC000918875053   -0.4600
     23 C23        -1.4210    2.4236   58.1566 C.2     1  ZINC000918875053    0.2100
     24 C24        -0.8383    2.5427   59.5412 C.3     1  ZINC000918875053   -0.0900
     25 C25        -0.2644    1.2752   60.1776 C.3     1  ZINC000918875053   -0.1600
     26 C26         0.6758    2.3780   59.6870 C.3     1  ZINC000918875053   -0.1500
     27 N27        -0.9736    1.6717   57.1959 N.2     1  ZINC000918875053   -0.3700
     28 O28        -1.6665    1.7960   56.2080 O.3     1  ZINC000918875053    0.1000
     29 H29        -5.0027    4.8129   55.1840 H       1  ZINC000918875053    0.0900
     30 H30        -4.6434    4.4530   56.8898 H       1  ZINC000918875053    0.0900
     31 H31        -3.4043    5.2092   55.8597 H       1  ZINC000918875053    0.0800
     32 H32        -2.8694    5.7540   51.6813 H       1  ZINC000918875053    0.1300
     33 H33        -1.9507    4.7207   52.8206 H       1  ZINC000918875053    0.1100
     34 H34        -2.5033    2.7854   47.8395 H       1  ZINC000918875053    0.1400
     35 H35        -1.2283    1.6733   46.0519 H       1  ZINC000918875053    0.1400
     36 H36         1.0142    0.7728   46.5130 H       1  ZINC000918875053    0.1400
     37 H37         1.9917    0.9820   48.7622 H       1  ZINC000918875053    0.1400
     38 H38        -2.3863    1.8424   51.8410 H       1  ZINC000918875053    0.1000
     39 H39        -3.4492    1.9747   50.4082 H       1  ZINC000918875053    0.1000
     40 H40        -1.3325    3.2573   60.1994 H       1  ZINC000918875053    0.1400
     41 H41        -0.3812    1.1556   61.2547 H       1  ZINC000918875053    0.1100
     42 H42        -0.3084    0.3552   59.5947 H       1  ZINC000918875053    0.1000
     43 H43         1.2504    2.1835   58.7814 H       1  ZINC000918875053    0.1000
     44 H44         1.1776    2.9839   60.4414 H       1  ZINC000918875053    0.1100
@<TRIPOS>BOND
     1     1     2    1
     2     1    29    1
     3     1    30    1
     4     1    31    1
     5     2     3    1
     6     2     4    1
     7     2    21    1
     8     4     5    1
     9     5     6    2
    10     5     7    1
    11     7     8    1
    12     7    20    1
    13     7     9    1
    14     9    10    1
    15     9    32    1
    16     9    33    1
    17    10    11    2
    18    10    12   am
    19    12    13    1
    20    12    20    1
    21    13    18   ar
    22    13    14   ar
    23    14    15   ar
    24    14    34    1
    25    15    16   ar
    26    15    35    1
    27    16    17   ar
    28    16    36    1
    29    17    18   ar
    30    17    37    1
    31    18    19    1
    32    20    38    1
    33    20    39    1
    34    21    28    1
    35    21    22    2
    36    22    23    1
    37    23    24    1
    38    23    27    2
    39    24    26    1
    40    24    25    1
    41    24    40    1
    42    25    26    1
    43    25    41    1
    44    25    42    1
    45    26    43    1
    46    26    44    1
    47    27    28    1
@<TRIPOS>SUBSTRUCTURE
     1 ZINC000918875053        1 TEMP              0 ****  ****    0 ROOT


##########                                Name:    ZINC000534799364
##########                DOCK_Rotatable_Bonds:                   4
##########                         Heavy_Atoms:                  29
##########                    Molecular_Weight:             391.491
##########                DOCK_Rotatable_Bonds:                   4
##########                       Formal_Charge:           0.0199998
##########                     HBond_Acceptors:                   6
##########                        HBond_Donors:                   0
##########                         Heavy_Atoms:                  29
##########                          Grid_Score:          -30.352266
##########                     Grid_vdw_energy:          -29.234272
##########                      Grid_es_energy:           -1.117994
##########           Internal_energy_repulsive:            7.082642

@<TRIPOS>MOLECULE
ZINC000534799364
 55 59 1 0 0
SMALL
USER_CHARGES


@<TRIPOS>ATOM
      1 C1        -14.4795   -2.6298   61.0276 C.3     1  ZINC000534799364   -0.1100
      2 C2        -14.5190   -2.8824   59.5424 C.ar    1  ZINC000534799364   -0.0200
      3 C3        -15.5629   -3.5906   58.9707 C.ar    1  ZINC000534799364   -0.1700
      4 C4        -15.5663   -3.8034   57.6044 C.ar    1  ZINC000534799364    0.1000
      5 N5        -14.5926   -3.3424   56.8443 N.ar    1  ZINC000534799364   -0.4800
      6 C6        -13.5807   -2.6638   57.3473 C.ar    1  ZINC000534799364    0.0800
      7 C7        -13.5095   -2.4043   58.7099 C.ar    1  ZINC000534799364    0.0300
      8 N8        -12.4356   -1.6844   59.2393 N.3     1  ZINC000534799364   -0.5000
      9 C9        -12.2392   -0.4218   58.5135 C.3     1  ZINC000534799364    0.0600
     10 C10       -11.1083    0.3717   59.1722 C.3     1  ZINC000534799364    0.0600
     11 N11        -9.8791   -0.4338   59.1642 N.3     1  ZINC000534799364   -0.5300
     12 C12        -8.7500    0.3233   59.7209 C.3     1  ZINC000534799364    0.1400
     13 C13        -8.3346    1.3951   58.7463 C.2     1  ZINC000534799364    0.1100
     14 N14        -7.6225    1.2126   57.6645 N.2     1  ZINC000534799364   -0.2800
     15 N15        -7.4556    2.4524   57.0359 N.pl3   1  ZINC000534799364   -0.3100
     16 C16        -6.7518    2.6861   55.8456 C.ar    1  ZINC000534799364    0.1500
     17 C17        -5.3758    2.8679   55.8759 C.ar    1  ZINC000534799364   -0.1000
     18 C18        -4.6845    3.0979   54.7027 C.ar    1  ZINC000534799364   -0.1300
     19 C19        -5.3630    3.1472   53.4965 C.ar    1  ZINC000534799364    0.1000
     20 F20        -4.6851    3.3720   52.3498 F       1  ZINC000534799364   -0.1300
     21 C21        -6.7356    2.9661   53.4642 C.ar    1  ZINC000534799364   -0.1300
     22 C22        -7.4296    2.7301   54.6348 C.ar    1  ZINC000534799364   -0.0800
     23 C23        -8.0942    3.3865   57.7810 C.2     1  ZINC000534799364    0.0500
     24 C24        -8.6503    2.7579   58.8404 C.2     1  ZINC000534799364   -0.2200
     25 C25        -9.3822    3.7534   59.7148 C.3     1  ZINC000534799364   -0.0400
     26 C26        -8.8412    5.1351   59.2871 C.3     1  ZINC000534799364   -0.1200
     27 C27        -8.3970    4.8682   57.8313 C.3     1  ZINC000534799364   -0.0500
     28 C28       -10.0756   -1.6964   59.8901 C.3     1  ZINC000534799364    0.0600
     29 C29       -11.2065   -2.4898   59.2314 C.3     1  ZINC000534799364    0.0600
     30 H30       -14.9124   -1.6526   61.2416 H       1  ZINC000534799364    0.0800
     31 H31       -15.0516   -3.4014   61.5428 H       1  ZINC000534799364    0.0600
     32 H32       -13.4457   -2.6526   61.3726 H       1  ZINC000534799364    0.0800
     33 H33       -16.3648   -3.9726   59.5850 H       1  ZINC000534799364    0.1400
     34 H34       -16.3778   -4.3554   57.1537 H       1  ZINC000534799364    0.1600
     35 H35       -12.8013   -2.3022   56.6928 H       1  ZINC000534799364    0.1500
     36 H36       -11.9779   -0.6350   57.4769 H       1  ZINC000534799364    0.0500
     37 H37       -13.1590    0.1623   58.5442 H       1  ZINC000534799364    0.0800
     38 H38       -10.9414    1.2954   58.6180 H       1  ZINC000534799364    0.0900
     39 H39       -11.3813    0.6085   60.2005 H       1  ZINC000534799364    0.0500
     40 H40        -9.0504    0.7845   60.6618 H       1  ZINC000534799364    0.1000
     41 H41        -7.9124   -0.3512   59.8980 H       1  ZINC000534799364    0.0500
     42 H42        -4.8464    2.8298   56.8165 H       1  ZINC000534799364    0.1400
     43 H43        -3.6141    3.2398   54.7260 H       1  ZINC000534799364    0.1500
     44 H44        -7.2632    3.0053   52.5227 H       1  ZINC000534799364    0.1500
     45 H45        -8.4999    2.5886   54.6092 H       1  ZINC000534799364    0.1400
     46 H46       -10.4561    3.6955   59.5373 H       1  ZINC000534799364    0.0800
     47 H47        -9.1609    3.5686   60.7659 H       1  ZINC000534799364    0.0700
     48 H48        -9.6280    5.8887   59.3206 H       1  ZINC000534799364    0.0800
     49 H49        -7.9945    5.4304   59.9067 H       1  ZINC000534799364    0.0800
     50 H50        -7.5013    5.4436   57.5969 H       1  ZINC000534799364    0.0800
     51 H51        -9.2005    5.1176   57.1382 H       1  ZINC000534799364    0.0900
     52 H52        -9.1557   -2.2804   59.8594 H       1  ZINC000534799364    0.0900
     53 H53       -10.3368   -1.4830   60.9266 H       1  ZINC000534799364    0.0500
     54 H54       -11.3734   -3.4135   59.7855 H       1  ZINC000534799364    0.0800
     55 H55       -10.9335   -2.7265   58.2030 H       1  ZINC000534799364    0.0500
@<TRIPOS>BOND
     1     1     2    1
     2     1    30    1
     3     1    31    1
     4     1    32    1
     5     2     7   ar
     6     2     3   ar
     7     3     4   ar
     8     3    33    1
     9     4     5   ar
    10     4    34    1
    11     5     6   ar
    12     6     7   ar
    13     6    35    1
    14     7     8    1
    15     8    29    1
    16     8     9    1
    17     9    10    1
    18     9    36    1
    19     9    37    1
    20    10    11    1
    21    10    38    1
    22    10    39    1
    23    11    12    1
    24    11    28    1
    25    12    13    1
    26    12    40    1
    27    12    41    1
    28    13    24    1
    29    13    14    2
    30    14    15    1
    31    15    16    1
    32    15    23    1
    33    16    22   ar
    34    16    17   ar
    35    17    18   ar
    36    17    42    1
    37    18    19   ar
    38    18    43    1
    39    19    20    1
    40    19    21   ar
    41    21    22   ar
    42    21    44    1
    43    22    45    1
    44    23    27    1
    45    23    24    2
    46    24    25    1
    47    25    26    1
    48    25    46    1
    49    25    47    1
    50    26    27    1
    51    26    48    1
    52    26    49    1
    53    27    50    1
    54    27    51    1
    55    28    29    1
    56    28    52    1
    57    28    53    1
    58    29    54    1
    59    29    55    1
@<TRIPOS>SUBSTRUCTURE
     1 ZINC000534799364        1 TEMP              0 ****  ****    0 ROOT


##########                                Name:    ZINC001039825450
##########                DOCK_Rotatable_Bonds:                   8
##########                         Heavy_Atoms:                  24
##########                    Molecular_Weight:             337.339
##########                DOCK_Rotatable_Bonds:                   8
##########                       Formal_Charge:           0.0100001
##########                     HBond_Acceptors:                  11
##########                        HBond_Donors:                   4
##########                         Heavy_Atoms:                  24
##########                          Grid_Score:          -30.348385
##########                     Grid_vdw_energy:          -28.758791
##########                      Grid_es_energy:           -1.589595
##########           Internal_energy_repulsive:            7.364185

@<TRIPOS>MOLECULE
ZINC001039825450
 43 45 1 0 0
SMALL
USER_CHARGES


@<TRIPOS>ATOM
      1 O1        -13.9757   -1.9700   57.1580 O.2     1  ZINC001039825450   -0.5100
      2 C2        -14.2153   -2.2142   55.9944 C.2     1  ZINC001039825450    0.5000
      3 C3        -15.5944   -2.6655   55.5877 C.3     1  ZINC001039825450    0.1300
      4 N4        -15.6321   -4.1288   55.5297 N.pl3   1  ZINC001039825450   -0.1500
      5 N5        -16.2393   -4.8086   54.6225 N.2     1  ZINC001039825450   -0.2800
      6 C6        -16.0717   -6.0878   54.8712 C.2     1  ZINC001039825450   -0.0200
      7 C7        -15.2952   -6.1537   56.0302 C.2     1  ZINC001039825450   -0.0200
      8 N8        -15.0579   -4.9086   56.3759 N.2     1  ZINC001039825450   -0.2800
      9 N9        -13.2497   -2.0766   55.0642 N.am    1  ZINC001039825450   -0.7300
     10 C10       -11.9090   -1.6379   55.4596 C.3     1  ZINC001039825450    0.1000
     11 C11       -11.5426   -0.3649   54.6940 C.3     1  ZINC001039825450    0.1100
     12 O12       -12.7191    0.2992   54.2284 O.3     1  ZINC001039825450   -0.5400
     13 C13       -10.6874    0.5806   55.5784 C.3     1  ZINC001039825450   -0.1600
     14 C14        -9.8943    1.3734   54.5096 C.3     1  ZINC001039825450    0.1000
     15 N15        -9.5983    0.3894   53.4524 N.am    1  ZINC001039825450   -0.6100
     16 C16        -8.5809    0.4648   52.5719 C.2     1  ZINC001039825450    0.5200
     17 O17        -8.4329   -0.4055   51.7402 O.2     1  ZINC001039825450   -0.5100
     18 C18        -7.6269    1.6304   52.6206 C.3     1  ZINC001039825450    0.1100
     19 H19        -7.3511    1.8549   53.6510 H       1  ZINC001039825450    0.1200
     20 C20        -8.2498    2.8678   51.9455 C.3     1  ZINC001039825450    0.1100
     21 N21        -7.3384    3.1557   50.8280 N.am    1  ZINC001039825450   -0.7400
     22 C22        -6.3454    2.2567   50.8271 C.2     1  ZINC001039825450    0.7100
     23 O23        -5.4478    2.2611   50.0070 O.2     1  ZINC001039825450   -0.5800
     24 N24        -6.4290    1.3511   51.8148 N.am    1  ZINC001039825450   -0.7200
     25 C25       -10.5966   -0.6880   53.5183 C.3     1  ZINC001039825450    0.1200
     26 H26       -16.3225   -2.3119   56.3179 H       1  ZINC001039825450    0.1400
     27 H27       -15.8359   -2.2567   54.6066 H       1  ZINC001039825450    0.1400
     28 H28       -16.4559   -6.9180   54.2972 H       1  ZINC001039825450    0.2000
     29 H29       -14.9556   -7.0454   56.5361 H       1  ZINC001039825450    0.2000
     30 H30       -13.4425   -2.2681   54.1330 H       1  ZINC001039825450    0.4000
     31 H31       -11.8942   -1.4349   56.5303 H       1  ZINC001039825450    0.0900
     32 H32       -11.1873   -2.4213   55.2283 H       1  ZINC001039825450    0.0900
     33 H33       -12.5634    0.9030   53.4892 H       1  ZINC001039825450    0.3800
     34 H34       -11.3210    1.2442   56.1669 H       1  ZINC001039825450    0.0900
     35 H35       -10.0156    0.0123   56.2217 H       1  ZINC001039825450    0.0900
     36 H36       -10.5018    2.1863   54.1120 H       1  ZINC001039825450    0.0800
     37 H37        -8.9694    1.7628   54.9351 H       1  ZINC001039825450    0.0800
     38 H38        -9.2491    2.6390   51.5750 H       1  ZINC001039825450    0.0900
     39 H39        -8.2810    3.7074   52.6399 H       1  ZINC001039825450    0.1000
     40 H40        -7.4401    3.8813   50.1925 H       1  ZINC001039825450    0.4400
     41 H41        -5.8007    0.6284   51.9693 H       1  ZINC001039825450    0.4400
     42 H42       -10.1005   -1.6427   53.6932 H       1  ZINC001039825450    0.0900
     43 H43       -11.1621   -0.7268   52.5873 H       1  ZINC001039825450    0.0900
@<TRIPOS>BOND
     1     1     2    2
     2     2     3    1
     3     2     9   am
     4     3     4    1
     5     3    26    1
     6     3    27    1
     7     4     8    1
     8     4     5    1
     9     5     6    2
    10     6     7    1
    11     6    28    1
    12     7     8    2
    13     7    29    1
    14     9    10    1
    15     9    30    1
    16    10    11    1
    17    10    31    1
    18    10    32    1
    19    11    25    1
    20    11    12    1
    21    11    13    1
    22    12    33    1
    23    13    14    1
    24    13    34    1
    25    13    35    1
    26    14    15    1
    27    14    36    1
    28    14    37    1
    29    15    16   am
    30    15    25    1
    31    16    17    2
    32    16    18    1
    33    18    19    1
    34    18    24    1
    35    18    20    1
    36    20    21    1
    37    20    38    1
    38    20    39    1
    39    21    22   am
    40    21    40    1
    41    22    23    2
    42    22    24   am
    43    24    41    1
    44    25    42    1
    45    25    43    1
@<TRIPOS>SUBSTRUCTURE
     1 ZINC001039825450        1 TEMP              0 ****  ****    0 ROOT


##########                                Name:    ZINC000185598309
##########                DOCK_Rotatable_Bonds:                  14
##########                         Heavy_Atoms:                  25
##########                    Molecular_Weight:             347.457
##########                DOCK_Rotatable_Bonds:                  14
##########                       Formal_Charge:               -0.02
##########                     HBond_Acceptors:                   6
##########                        HBond_Donors:                   4
##########                         Heavy_Atoms:                  25
##########                          Grid_Score:          -30.316517
##########                     Grid_vdw_energy:          -28.329647
##########                      Grid_es_energy:           -1.986870
##########           Internal_energy_repulsive:            9.504672

@<TRIPOS>MOLECULE
ZINC000185598309
 54 54 1 0 0
SMALL
USER_CHARGES


@<TRIPOS>ATOM
      1 C1         -2.9144    2.5010   50.8573 C.3     1  ZINC000185598309   -0.1300
      2 C2         -3.1080    3.5253   51.9456 C.2     1  ZINC000185598309   -0.1600
      3 C3         -2.8747    3.2061   53.1945 C.2     1  ZINC000185598309   -0.1600
      4 C4         -3.0665    4.2309   54.2827 C.3     1  ZINC000185598309   -0.0900
      5 C5         -3.4512    3.5260   55.5850 C.3     1  ZINC000185598309    0.1700
      6 H6         -3.8209    4.2606   56.3003 H       1  ZINC000185598309    0.1000
      7 C7         -2.2233    2.8217   56.1656 C.3     1  ZINC000185598309    0.0600
      8 O8         -2.4986    2.4123   57.5066 O.3     1  ZINC000185598309   -0.5700
      9 N9         -4.4984    2.5378   55.3144 N.am    1  ZINC000185598309   -0.7300
     10 C10        -5.7941    2.8629   55.4932 C.2     1  ZINC000185598309    0.7000
     11 O11        -6.0939    3.9768   55.8775 O.2     1  ZINC000185598309   -0.5900
     12 N12        -6.7574    1.9533   55.2458 N.am    1  ZINC000185598309   -0.7400
     13 C13        -8.1657    2.3062   55.4418 C.3     1  ZINC000185598309    0.1800
     14 C14        -9.0387    1.1799   54.9512 C.ar    1  ZINC000185598309   -0.0900
     15 C15        -8.8343    0.6458   53.6926 C.ar    1  ZINC000185598309   -0.1100
     16 C16        -9.6336   -0.3876   53.2385 C.ar    1  ZINC000185598309   -0.1000
     17 C17       -10.6385   -0.8893   54.0418 C.ar    1  ZINC000185598309   -0.1100
     18 C18       -10.8462   -0.3551   55.3069 C.ar    1  ZINC000185598309    0.1400
     19 N19       -11.8632   -0.8616   56.1235 N.am    1  ZINC000185598309   -0.6800
     20 C20       -11.6788   -2.0181   56.7906 C.2     1  ZINC000185598309    0.5200
     21 O21       -10.6313   -2.6199   56.6829 O.2     1  ZINC000185598309   -0.5200
     22 C22       -12.7743   -2.5636   57.6702 C.3     1  ZINC000185598309   -0.1100
     23 H23       -12.5108   -3.5694   57.9971 H       1  ZINC000185598309    0.1000
     24 C24       -14.0850   -2.6104   56.8824 C.3     1  ZINC000185598309   -0.1500
     25 C25       -12.9455   -1.6586   58.8919 C.3     1  ZINC000185598309   -0.1100
     26 C26       -11.9650   -2.0873   59.9854 C.3     1  ZINC000185598309   -0.1600
     27 C27       -10.0386    0.6787   55.7619 C.ar    1  ZINC000185598309   -0.1300
     28 H28        -3.1552    2.9465   49.8920 H       1  ZINC000185598309    0.0600
     29 H29        -1.8772    2.1660   50.8540 H       1  ZINC000185598309    0.0600
     30 H30        -3.5707    1.6499   51.0385 H       1  ZINC000185598309    0.0600
     31 H31        -3.4391    4.5226   51.6959 H       1  ZINC000185598309    0.1100
     32 H32        -2.5449    2.2084   53.4443 H       1  ZINC000185598309    0.1100
     33 H33        -2.1384    4.7835   54.4290 H       1  ZINC000185598309    0.0900
     34 H34        -3.8593    4.9217   53.9955 H       1  ZINC000185598309    0.0800
     35 H35        -1.9861    1.9469   55.5600 H       1  ZINC000185598309    0.0500
     36 H36        -1.3757    3.5070   56.1616 H       1  ZINC000185598309    0.0500
     37 H37        -1.7419    2.0164   57.9603 H       1  ZINC000185598309    0.3800
     38 H38        -4.2593    1.6496   55.0066 H       1  ZINC000185598309    0.4000
     39 H39        -6.5182    1.0650   54.9381 H       1  ZINC000185598309    0.4000
     40 H40        -8.3535    2.4762   56.5020 H       1  ZINC000185598309    0.0700
     41 H41        -8.3943    3.2132   54.8823 H       1  ZINC000185598309    0.0800
     42 H42        -8.0490    1.0363   53.0625 H       1  ZINC000185598309    0.1300
     43 H43        -9.4719   -0.8023   52.2545 H       1  ZINC000185598309    0.1300
     44 H44       -11.2625   -1.6959   53.6865 H       1  ZINC000185598309    0.1300
     45 H45       -12.7010   -0.3803   56.2097 H       1  ZINC000185598309    0.4100
     46 H46       -13.9631   -3.2551   56.0120 H       1  ZINC000185598309    0.0600
     47 H47       -14.8774   -3.0048   57.5185 H       1  ZINC000185598309    0.0800
     48 H48       -14.3485   -1.6045   56.5555 H       1  ZINC000185598309    0.0600
     49 H49       -12.7455   -0.6250   58.6094 H       1  ZINC000185598309    0.0700
     50 H50       -13.9660   -1.7422   59.2658 H       1  ZINC000185598309    0.0700
     51 H51       -12.1650   -3.1209   60.2680 H       1  ZINC000185598309    0.0600
     52 H52       -10.9445   -2.0037   59.6116 H       1  ZINC000185598309    0.0600
     53 H53       -12.0870   -1.4426   60.8559 H       1  ZINC000185598309    0.0600
     54 H54       -10.1975    1.0962   56.7452 H       1  ZINC000185598309    0.1300
@<TRIPOS>BOND
     1     1     2    1
     2     1    28    1
     3     1    29    1
     4     1    30    1
     5     2     3    2
     6     2    31    1
     7     3     4    1
     8     3    32    1
     9     4     5    1
    10     4    33    1
    11     4    34    1
    12     5     6    1
    13     5     7    1
    14     5     9    1
    15     7     8    1
    16     7    35    1
    17     7    36    1
    18     8    37    1
    19     9    10   am
    20     9    38    1
    21    10    11    2
    22    10    12   am
    23    12    13    1
    24    12    39    1
    25    13    14    1
    26    13    40    1
    27    13    41    1
    28    14    27   ar
    29    14    15   ar
    30    15    16   ar
    31    15    42    1
    32    16    17   ar
    33    16    43    1
    34    17    18   ar
    35    17    44    1
    36    18    19    1
    37    18    27   ar
    38    19    20   am
    39    19    45    1
    40    20    21    2
    41    20    22    1
    42    22    23    1
    43    22    24    1
    44    22    25    1
    45    24    46    1
    46    24    47    1
    47    24    48    1
    48    25    26    1
    49    25    49    1
    50    25    50    1
    51    26    51    1
    52    26    52    1
    53    26    53    1
    54    27    54    1
@<TRIPOS>SUBSTRUCTURE
     1 ZINC000185598309        1 TEMP              0 ****  ****    0 ROOT


##########                                Name:    ZINC001085711660
##########                DOCK_Rotatable_Bonds:                   8
##########                         Heavy_Atoms:                  25
##########                    Molecular_Weight:             347.414
##########                DOCK_Rotatable_Bonds:                   8
##########                       Formal_Charge:         -0.00999993
##########                     HBond_Acceptors:                   7
##########                        HBond_Donors:                   0
##########                         Heavy_Atoms:                  25
##########                          Grid_Score:          -30.310825
##########                     Grid_vdw_energy:          -30.184320
##########                      Grid_es_energy:           -0.126505
##########           Internal_energy_repulsive:           13.376991

@<TRIPOS>MOLECULE
ZINC001085711660
 50 52 1 0 0
SMALL
USER_CHARGES


@<TRIPOS>ATOM
      1 C1         -6.1761   -0.0489   50.9148 C.3     1  ZINC001085711660    0.0300
      2 O2         -7.3564   -0.2563   51.6931 O.3     1  ZINC001085711660   -0.3800
      3 C3         -7.9178    0.9438   52.2287 C.3     1  ZINC001085711660    0.1400
      4 C4         -9.1244    0.6043   53.0652 C.2     1  ZINC001085711660    0.0100
      5 C5        -10.2028    1.3974   53.2492 C.2     1  ZINC001085711660   -0.1900
      6 C6        -11.0870    0.7039   54.0903 C.2     1  ZINC001085711660   -0.1200
      7 C7        -10.4959   -0.4922   54.3805 C.2     1  ZINC001085711660   -0.0700
      8 C8        -11.0575   -1.5473   55.2303 C.2     1  ZINC001085711660    0.6000
      9 O9        -11.4752   -2.5746   54.7291 O.2     1  ZINC001085711660   -0.5200
     10 N10       -11.1112   -1.3791   56.5665 N.am    1  ZINC001085711660   -0.6000
     11 C11       -10.6085   -0.1424   57.1700 C.3     1  ZINC001085711660    0.0700
     12 C12       -11.6722   -2.4331   57.4155 C.3     1  ZINC001085711660    0.1300
     13 C13       -12.2779   -1.8065   58.6730 C.3     1  ZINC001085711660    0.0000
     14 H14       -12.6405   -0.7922   58.5057 H       1  ZINC001085711660    0.1000
     15 C15       -11.3839   -1.9394   59.9139 C.3     1  ZINC001085711660   -0.1400
     16 C16       -12.7159   -2.1919   60.6341 C.3     1  ZINC001085711660    0.0100
     17 N17       -13.2578   -2.6767   59.3496 N.3     1  ZINC001085711660   -0.4500
     18 C18       -14.6283   -2.1913   59.1397 C.3     1  ZINC001085711660    0.1500
     19 H19       -14.6167   -1.1071   59.0280 H       1  ZINC001085711660    0.1000
     20 C20       -15.4937   -2.5709   60.3431 C.3     1  ZINC001085711660   -0.1900
     21 C21       -15.1980   -2.8186   57.8935 C.2     1  ZINC001085711660    0.2000
     22 N22       -16.1007   -2.2855   57.1204 N.2     1  ZINC001085711660   -0.4700
     23 C23       -16.3589   -3.1344   56.1100 C.2     1  ZINC001085711660   -0.0400
     24 C24       -15.5839   -4.2184   56.2800 C.2     1  ZINC001085711660   -0.0500
     25 C25       -15.5342   -5.4322   55.3882 C.3     1  ZINC001085711660   -0.0700
     26 O26       -14.8554   -4.0139   57.3951 O.3     1  ZINC001085711660   -0.2000
     27 O27        -9.3070   -0.5356   53.7442 O.3     1  ZINC001085711660   -0.1500
     28 H28        -6.4065    0.6024   50.0718 H       1  ZINC001085711660    0.0500
     29 H29        -5.4093    0.4163   51.5345 H       1  ZINC001085711660    0.0500
     30 H30        -5.8119   -1.0073   50.5446 H       1  ZINC001085711660    0.0900
     31 H31        -7.1758    1.4470   52.8486 H       1  ZINC001085711660    0.0900
     32 H32        -8.2153    1.6016   51.4121 H       1  ZINC001085711660    0.0700
     33 H33       -10.3556    2.3803   52.8282 H       1  ZINC001085711660    0.1600
     34 H34       -12.0486    1.0495   54.4402 H       1  ZINC001085711660    0.1600
     35 H35       -11.3836    0.6228   57.1294 H       1  ZINC001085711660    0.0600
     36 H36       -10.3367   -0.3295   58.2087 H       1  ZINC001085711660    0.0900
     37 H37        -9.7313    0.1994   56.6207 H       1  ZINC001085711660    0.0800
     38 H38       -12.4474   -2.9677   56.8665 H       1  ZINC001085711660    0.0900
     39 H39       -10.8830   -3.1289   57.7003 H       1  ZINC001085711660    0.0900
     40 H40       -10.7172   -2.8015   59.8933 H       1  ZINC001085711660    0.1000
     41 H41       -10.8864   -1.0148   60.2067 H       1  ZINC001085711660    0.0800
     42 H42       -12.6556   -2.9650   61.4000 H       1  ZINC001085711660    0.0900
     43 H43       -13.1962   -1.2808   60.9907 H       1  ZINC001085711660    0.0800
     44 H44       -15.4180   -3.6435   60.5211 H       1  ZINC001085711660    0.0800
     45 H45       -15.1475   -2.0309   61.2243 H       1  ZINC001085711660    0.0800
     46 H46       -16.5322   -2.3086   60.1409 H       1  ZINC001085711660    0.0700
     47 H47       -17.0627   -2.9738   55.3067 H       1  ZINC001085711660    0.1800
     48 H48       -14.7822   -5.2831   54.6134 H       1  ZINC001085711660    0.0800
     49 H49       -15.2755   -6.3089   55.9819 H       1  ZINC001085711660    0.0800
     50 H50       -16.5090   -5.5823   54.9243 H       1  ZINC001085711660    0.0900
@<TRIPOS>BOND
     1     1     2    1
     2     1    28    1
     3     1    29    1
     4     1    30    1
     5     2     3    1
     6     3     4    1
     7     3    31    1
     8     3    32    1
     9     4    27    1
    10     4     5    2
    11     5     6    1
    12     5    33    1
    13     6     7    2
    14     6    34    1
    15     7     8    1
    16     7    27    1
    17     8     9    2
    18     8    10   am
    19    10    11    1
    20    10    12    1
    21    11    35    1
    22    11    36    1
    23    11    37    1
    24    12    13    1
    25    12    38    1
    26    12    39    1
    27    13    14    1
    28    13    17    1
    29    13    15    1
    30    15    16    1
    31    15    40    1
    32    15    41    1
    33    16    17    1
    34    16    42    1
    35    16    43    1
    36    17    18    1
    37    18    19    1
    38    18    20    1
    39    18    21    1
    40    20    44    1
    41    20    45    1
    42    20    46    1
    43    21    26    1
    44    21    22    2
    45    22    23    1
    46    23    24    2
    47    23    47    1
    48    24    25    1
    49    24    26    1
    50    25    48    1
    51    25    49    1
    52    25    50    1
@<TRIPOS>SUBSTRUCTURE
     1 ZINC001085711660        1 TEMP              0 ****  ****    0 ROOT


##########                                Name:    ZINC000479580180
##########                DOCK_Rotatable_Bonds:                   5
##########                         Heavy_Atoms:                  30
##########                    Molecular_Weight:             404.444
##########                DOCK_Rotatable_Bonds:                   5
##########                       Formal_Charge:           0.0299995
##########                     HBond_Acceptors:                   7
##########                        HBond_Donors:                   1
##########                         Heavy_Atoms:                  30
##########                          Grid_Score:          -30.306473
##########                     Grid_vdw_energy:          -30.204811
##########                      Grid_es_energy:           -0.101663
##########           Internal_energy_repulsive:           11.220760

@<TRIPOS>MOLECULE
ZINC000479580180
 51 55 1 0 0
SMALL
USER_CHARGES


@<TRIPOS>ATOM
      1 O1         -2.9085    2.3233   52.8348 O.2     1  ZINC000479580180   -0.5200
      2 C2         -2.2181    3.2301   53.2494 C.2     1  ZINC000479580180    0.5200
      3 C3         -1.1768    3.8535   52.3560 C.3     1  ZINC000479580180   -0.0700
      4 C4         -1.2390    3.2165   50.9917 C.2     1  ZINC000479580180   -0.1600
      5 C5         -2.2060    3.3673   50.0768 C.2     1  ZINC000479580180    0.0300
      6 O6         -1.9215    2.6454   48.9784 O.3     1  ZINC000479580180   -0.1900
      7 C7         -0.7535    1.9882   49.1242 C.ar    1  ZINC000479580180    0.0800
      8 C8         -0.0306    1.1309   48.3049 C.ar    1  ZINC000479580180   -0.1400
      9 C9          1.1659    0.6036   48.7490 C.ar    1  ZINC000479580180    0.1300
     10 F10         1.8675   -0.2298   47.9499 F       1  ZINC000479580180   -0.1300
     11 C11         1.6553    0.9222   50.0093 C.ar    1  ZINC000479580180   -0.1600
     12 C12         0.9572    1.7643   50.8301 C.ar    1  ZINC000479580180   -0.0400
     13 C13        -0.2489    2.3110   50.3954 C.ar    1  ZINC000479580180   -0.1200
     14 N14        -2.3858    3.6841   54.5073 N.am    1  ZINC000479580180   -0.6200
     15 C15        -3.3928    3.0827   55.3922 C.3     1  ZINC000479580180    0.1100
     16 C16        -2.7123    2.6602   56.6980 C.3     1  ZINC000479580180   -0.1300
     17 C17        -1.9835    3.8632   57.3013 C.3     1  ZINC000479580180   -0.0100
     18 C18        -1.3413    3.4598   58.6035 C.2     1  ZINC000479580180    0.3000
     19 N19        -0.9878    2.2474   58.9394 N.2     1  ZINC000479580180   -0.5300
     20 C20        -0.4489    2.2556   60.1659 C.2     1  ZINC000479580180    0.2700
     21 C21         0.0717    1.0693   60.8901 C.ar    1  ZINC000479580180   -0.0200
     22 C22         0.7818    1.2315   62.0778 C.ar    1  ZINC000479580180   -0.0800
     23 C23         1.2633    0.1248   62.7474 C.ar    1  ZINC000479580180   -0.1300
     24 C24         1.0426   -1.1434   62.2411 C.ar    1  ZINC000479580180   -0.1000
     25 C25         0.3383   -1.3099   61.0623 C.ar    1  ZINC000479580180   -0.1200
     26 C26        -0.1528   -0.2106   60.3876 C.ar    1  ZINC000479580180   -0.0800
     27 N27        -0.4572    3.4890   60.6217 N.2     1  ZINC000479580180   -0.3000
     28 N28        -1.0285    4.2869   59.6172 N.pl3   1  ZINC000479580180   -0.4800
     29 C29        -0.9052    4.3483   56.3296 C.3     1  ZINC000479580180   -0.1400
     30 C30        -1.5611    4.7859   55.0217 C.3     1  ZINC000479580180    0.1200
     31 H31        -1.3678    4.9230   52.2666 H       1  ZINC000479580180    0.1100
     32 H32        -0.1876    3.6958   52.7859 H       1  ZINC000479580180    0.1100
     33 H33        -3.0865    3.9798   50.2032 H       1  ZINC000479580180    0.2100
     34 H34        -0.4034    0.8771   47.3235 H       1  ZINC000479580180    0.1500
     35 H35         2.5927    0.5022   50.3431 H       1  ZINC000479580180    0.1400
     36 H36         1.3413    2.0086   51.8094 H       1  ZINC000479580180    0.1300
     37 H37        -4.1735    3.8125   55.6064 H       1  ZINC000479580180    0.0800
     38 H38        -3.8293    2.2090   54.9083 H       1  ZINC000479580180    0.0900
     39 H39        -3.4643    2.3007   57.4004 H       1  ZINC000479580180    0.0900
     40 H40        -1.9950    1.8652   56.4938 H       1  ZINC000479580180    0.0700
     41 H41        -2.6973    4.6669   57.4821 H       1  ZINC000479580180    0.1200
     42 H42         0.9553    2.2212   62.4736 H       1  ZINC000479580180    0.1400
     43 H43         1.8139    0.2492   63.6681 H       1  ZINC000479580180    0.1300
     44 H44         1.4217   -2.0066   62.7679 H       1  ZINC000479580180    0.1300
     45 H45         0.1691   -2.3023   60.6712 H       1  ZINC000479580180    0.1300
     46 H46        -0.7028   -0.3418   59.4673 H       1  ZINC000479580180    0.1300
     47 H47        -1.1745    5.2453   59.6502 H       1  ZINC000479580180    0.4400
     48 H48        -0.3711    5.1903   56.7699 H       1  ZINC000479580180    0.0900
     49 H49        -0.2049    3.5375   56.1290 H       1  ZINC000479580180    0.0700
     50 H50        -0.7905    5.0382   54.2931 H       1  ZINC000479580180    0.1000
     51 H51        -2.1940    5.6546   55.2029 H       1  ZINC000479580180    0.0800
@<TRIPOS>BOND
     1     1     2    2
     2     2     3    1
     3     2    14   am
     4     3     4    1
     5     3    31    1
     6     3    32    1
     7     4    13    1
     8     4     5    2
     9     5     6    1
    10     5    33    1
    11     6     7    1
    12     7    13   ar
    13     7     8   ar
    14     8     9   ar
    15     8    34    1
    16     9    10    1
    17     9    11   ar
    18    11    12   ar
    19    11    35    1
    20    12    13   ar
    21    12    36    1
    22    14    30    1
    23    14    15    1
    24    15    16    1
    25    15    37    1
    26    15    38    1
    27    16    17    1
    28    16    39    1
    29    16    40    1
    30    17    18    1
    31    17    29    1
    32    17    41    1
    33    18    28    1
    34    18    19    2
    35    19    20    1
    36    20    21    1
    37    20    27    2
    38    21    26   ar
    39    21    22   ar
    40    22    23   ar
    41    22    42    1
    42    23    24   ar
    43    23    43    1
    44    24    25   ar
    45    24    44    1
    46    25    26   ar
    47    25    45    1
    48    26    46    1
    49    27    28    1
    50    28    47    1
    51    29    30    1
    52    29    48    1
    53    29    49    1
    54    30    50    1
    55    30    51    1
@<TRIPOS>SUBSTRUCTURE
     1 ZINC000479580180        1 TEMP              0 ****  ****    0 ROOT


##########                                Name:    ZINC000787750060
##########                DOCK_Rotatable_Bonds:                   6
##########                         Heavy_Atoms:                  24
##########                    Molecular_Weight:             347.438
##########                DOCK_Rotatable_Bonds:                   6
##########                       Formal_Charge:           0.0200003
##########                     HBond_Acceptors:                   7
##########                        HBond_Donors:                   2
##########                         Heavy_Atoms:                  24
##########                          Grid_Score:          -30.289543
##########                     Grid_vdw_energy:          -29.284319
##########                      Grid_es_energy:           -1.005224
##########           Internal_energy_repulsive:            7.653636

@<TRIPOS>MOLECULE
ZINC000787750060
 45 47 1 0 0
SMALL
USER_CHARGES


@<TRIPOS>ATOM
      1 C1          3.2861   -0.2871   48.9208 C.3     1  ZINC000787750060   -0.1200
      2 C2          2.1398    0.5894   49.3554 C.ar    1  ZINC000787750060   -0.0400
      3 C3          2.1717    1.1980   50.5991 C.ar    1  ZINC000787750060   -0.1300
      4 C4          1.1289    2.0017   51.0070 C.ar    1  ZINC000787750060   -0.0700
      5 C5          0.0347    2.2044   50.1630 C.ar    1  ZINC000787750060   -0.1700
      6 C6         -1.0848    3.0639   50.5930 C.2     1  ZINC000787750060    0.5600
      7 O7         -1.4180    4.0145   49.9120 O.2     1  ZINC000787750060   -0.5200
      8 N8         -1.7382    2.7952   51.7408 N.am    1  ZINC000787750060   -0.7300
      9 C9         -2.8487    3.6496   52.1687 C.3     1  ZINC000787750060    0.2100
     10 C10        -4.1562    2.9778   51.8365 C.2     1  ZINC000787750060   -0.2800
     11 C11        -4.4098    2.2549   50.7453 C.2     1  ZINC000787750060    0.0900
     12 N12        -5.6363    1.7677   50.6816 N.2     1  ZINC000787750060   -0.5200
     13 C13        -6.4296    2.0464   51.6689 C.2     1  ZINC000787750060    0.2300
     14 N14        -7.7453    1.6231   51.7741 N.3     1  ZINC000787750060   -0.4500
     15 C15        -8.5599    2.6100   52.4978 C.3     1  ZINC000787750060    0.0200
     16 C16       -10.0137    2.1320   52.5388 C.3     1  ZINC000787750060    0.0600
     17 O17       -10.0678    0.8372   53.1437 O.3     1  ZINC000787750060   -0.3800
     18 C18        -9.2862   -0.1488   52.4641 C.3     1  ZINC000787750060    0.0600
     19 C19        -7.8248    0.3061   52.4224 C.3     1  ZINC000787750060    0.0300
     20 S20        -5.6135    3.0045   52.8260 S.3     1  ZINC000787750060    0.1700
     21 C21         0.0064    1.5870   48.9049 C.ar    1  ZINC000787750060    0.1700
     22 O22        -1.0511    1.7765   48.0765 O.3     1  ZINC000787750060   -0.4700
     23 C23         1.0663    0.7856   48.5089 C.ar    1  ZINC000787750060   -0.1200
     24 C24         1.0420    0.1190   47.1576 C.3     1  ZINC000787750060   -0.1200
     25 H25         4.0331    0.3192   48.4085 H       1  ZINC000787750060    0.0800
     26 H26         3.7366   -0.7564   49.7953 H       1  ZINC000787750060    0.0700
     27 H27         2.9176   -1.0581   48.2440 H       1  ZINC000787750060    0.0800
     28 H28         3.0174    1.0419   51.2525 H       1  ZINC000787750060    0.1300
     29 H29         1.1577    2.4737   51.9779 H       1  ZINC000787750060    0.1300
     30 H30        -1.4733    2.0362   52.2835 H       1  ZINC000787750060    0.4000
     31 H31        -2.7875    3.8135   53.2445 H       1  ZINC000787750060    0.0900
     32 H32        -2.7907    4.6072   51.6514 H       1  ZINC000787750060    0.0800
     33 H33        -3.6723    2.0815   49.9756 H       1  ZINC000787750060    0.1800
     34 H34        -8.1832    2.7172   53.5150 H       1  ZINC000787750060    0.0600
     35 H35        -8.5070    3.5710   51.9863 H       1  ZINC000787750060    0.1000
     36 H36       -10.6108    2.8321   53.1233 H       1  ZINC000787750060    0.1100
     37 H37       -10.4074    2.0763   51.5238 H       1  ZINC000787750060    0.0700
     38 H38        -9.3567   -1.0983   52.9947 H       1  ZINC000787750060    0.1100
     39 H39        -9.6584   -0.2709   51.4470 H       1  ZINC000787750060    0.0600
     40 H40        -7.2353   -0.4147   51.8558 H       1  ZINC000787750060    0.1000
     41 H41        -7.4364    0.3764   53.4384 H       1  ZINC000787750060    0.0700
     42 H42        -0.8730    1.5505   47.1533 H       1  ZINC000787750060    0.4000
     43 H43         1.5011    0.7769   46.4196 H       1  ZINC000787750060    0.0700
     44 H44         1.5972   -0.8178   47.2045 H       1  ZINC000787750060    0.0700
     45 H45         0.0102   -0.0842   46.8712 H       1  ZINC000787750060    0.0800
@<TRIPOS>BOND
     1     1     2    1
     2     1    25    1
     3     1    26    1
     4     1    27    1
     5     2    23   ar
     6     2     3   ar
     7     3     4   ar
     8     3    28    1
     9     4     5   ar
    10     4    29    1
    11     5     6    1
    12     5    21   ar
    13     6     7    2
    14     6     8   am
    15     8     9    1
    16     8    30    1
    17     9    10    1
    18     9    31    1
    19     9    32    1
    20    10    20    1
    21    10    11    2
    22    11    12    1
    23    11    33    1
    24    12    13    2
    25    13    14    1
    26    13    20    1
    27    14    19    1
    28    14    15    1
    29    15    16    1
    30    15    34    1
    31    15    35    1
    32    16    17    1
    33    16    36    1
    34    16    37    1
    35    17    18    1
    36    18    19    1
    37    18    38    1
    38    18    39    1
    39    19    40    1
    40    19    41    1
    41    21    22    1
    42    21    23   ar
    43    22    42    1
    44    23    24    1
    45    24    43    1
    46    24    44    1
    47    24    45    1
@<TRIPOS>SUBSTRUCTURE
     1 ZINC000787750060        1 TEMP              0 ****  ****    0 ROOT


##########                                Name:    ZINC000011972961
##########                DOCK_Rotatable_Bonds:                   6
##########                         Heavy_Atoms:                  28
##########                    Molecular_Weight:             397.501
##########                DOCK_Rotatable_Bonds:                   6
##########                       Formal_Charge:                   0
##########                     HBond_Acceptors:                   8
##########                        HBond_Donors:                   1
##########                         Heavy_Atoms:                  28
##########                          Grid_Score:          -30.289314
##########                     Grid_vdw_energy:          -30.289314
##########                      Grid_es_energy:            0.000000
##########           Internal_energy_repulsive:           24.745701

@<TRIPOS>MOLECULE
ZINC000011972961
 51 54 1 0 0
SMALL
USER_CHARGES


@<TRIPOS>ATOM
      1 C1         -6.7358    3.4203   51.6735 C.3              0.0000
      2 C2         -6.4551    3.1639   53.1317 C.2              0.0000
      3 C3         -7.4344    2.9781   54.0258 C.2              0.0000
      4 C4         -8.8680    2.9993   53.7107 C.2              0.0000
      5 O5         -9.5113    4.0196   53.8719 O.2              0.0000
      6 N6         -9.4717    1.8889   53.2429 N.am             0.0000
      7 C7         -8.6972    0.6606   53.0488 C.3              0.0000
      8 C8        -10.9024    1.9101   52.9285 C.3              0.0000
      9 H9        -11.3701    2.8029   53.3435 H                0.0000
     10 C10       -11.1217    1.8455   51.3973 C.3              0.0000
     11 C11       -11.4084    0.3387   51.1737 C.3              0.0000
     12 O12       -12.1788   -0.0337   52.3366 O.3              0.0000
     13 C13       -11.5916    0.6408   53.4657 C.3              0.0000
     14 S14        -6.7677    2.7049   55.6264 S.3              0.0000
     15 C15        -5.1234    2.8549   55.0211 C.ar             0.0000
     16 N16        -3.9421    2.7709   55.6434 N.ar             0.0000
     17 C17        -2.8162    2.9177   54.9832 C.ar             0.0000
     18 N18        -2.7876    3.1534   53.6842 N.ar             0.0000
     19 C19        -3.9038    3.2540   52.9785 C.ar             0.0000
     20 N20        -3.8553    3.5007   51.6215 N.pl3            0.0000
     21 C21        -3.5117    2.4213   50.6925 C.3              0.0000
     22 C22        -2.1632    2.6969   50.0789 C.ar             0.0000
     23 N23        -1.8896    2.2377   48.8736 N.ar             0.0000
     24 C24        -0.7234    2.4547   48.2970 C.ar             0.0000
     25 C25        -0.4614    1.9076   46.9175 C.3              0.0000
     26 C26         0.2608    3.1782   48.9430 C.ar             0.0000
     27 C27         0.0096    3.6772   50.2122 C.ar             0.0000
     28 C28        -1.2294    3.4329   50.7840 C.ar             0.0000
     29 C29        -5.1541    3.0982   53.6410 C.ar             0.0000
     30 H30        -6.4141    2.5609   51.0849 H                0.0000
     31 H31        -7.8050    3.5782   51.5314 H                0.0000
     32 H32        -6.1913    4.3071   51.3490 H                0.0000
     33 H33        -8.3520    0.2922   54.0148 H                0.0000
     34 H34        -9.3254   -0.0940   52.5754 H                0.0000
     35 H35        -7.8378    0.8698   52.4116 H                0.0000
     36 H36       -11.9772    2.4524   51.1009 H                0.0000
     37 H37       -10.2235    2.1541   50.8623 H                0.0000
     38 H38       -11.9902    0.1897   50.2640 H                0.0000
     39 H39       -10.4778   -0.2271   51.1325 H                0.0000
     40 H40       -10.8557   -0.0065   53.9425 H                0.0000
     41 H41       -12.3684    0.9118   54.1808 H                0.0000
     42 H42        -1.8825    2.8435   55.5209 H                0.0000
     43 H43        -4.0488    4.3888   51.2828 H                0.0000
     44 H44        -3.4789    1.4745   51.2317 H                0.0000
     45 H45        -4.2642    2.3656   49.9059 H                0.0000
     46 H46        -0.7638    2.6427   46.1716 H                0.0000
     47 H47         0.6018    1.6943   46.8071 H                0.0000
     48 H48        -1.0327    0.9902   46.7759 H                0.0000
     49 H49         1.2138    3.3525   48.4656 H                0.0000
     50 H50         0.7600    4.2461   50.7411 H                0.0000
     51 H51        -1.4597    3.8068   51.7706 H                0.0000
@<TRIPOS>BOND
     1     1     2    1
     2     1    30    1
     3     1    31    1
     4     1    32    1
     5     2    29    1
     6     2     3    2
     7     3     4    1
     8     3    14    1
     9     4     5    2
    10     4     6   am
    11     6     7    1
    12     6     8    1
    13     7    33    1
    14     7    34    1
    15     7    35    1
    16     8     9    1
    17     8    13    1
    18     8    10    1
    19    10    11    1
    20    10    36    1
    21    10    37    1
    22    11    12    1
    23    11    38    1
    24    11    39    1
    25    12    13    1
    26    13    40    1
    27    13    41    1
    28    14    15    1
    29    15    29   ar
    30    15    16   ar
    31    16    17   ar
    32    17    18   ar
    33    17    42    1
    34    18    19   ar
    35    19    20    1
    36    19    29   ar
    37    20    21    1
    38    20    43    1
    39    21    22    1
    40    21    44    1
    41    21    45    1
    42    22    28   ar
    43    22    23   ar
    44    23    24   ar
    45    24    25    1
    46    24    26   ar
    47    25    46    1
    48    25    47    1
    49    25    48    1
    50    26    27   ar
    51    26    49    1
    52    27    28   ar
    53    27    50    1
    54    28    51    1
@<TRIPOS>SUBSTRUCTURE
     1         1 TEMP              0 ****  ****    0 ROOT


##########                                Name:    ZINC000053543817
##########                DOCK_Rotatable_Bonds:                   7
##########                         Heavy_Atoms:                  25
##########                    Molecular_Weight:             350.458
##########                DOCK_Rotatable_Bonds:                   7
##########                       Formal_Charge:           0.0199998
##########                     HBond_Acceptors:                   6
##########                        HBond_Donors:                   2
##########                         Heavy_Atoms:                  25
##########                          Grid_Score:          -30.268280
##########                     Grid_vdw_energy:          -30.108143
##########                      Grid_es_energy:           -0.160138
##########           Internal_energy_repulsive:           11.361298

@<TRIPOS>MOLECULE
ZINC000053543817
 55 56 1 0 0
SMALL
USER_CHARGES


@<TRIPOS>ATOM
      1 C1        -11.9778   -1.7784   54.8668 C.3     1  ZINC000053543817   -0.0700
      2 C2        -11.2089   -1.2437   56.0475 C.2     1  ZINC000053543817   -0.0200
      3 C3        -10.5119   -0.0906   56.0767 C.2     1  ZINC000053543817   -0.1800
      4 C4         -9.9585    0.0129   57.3655 C.2     1  ZINC000053543817   -0.1900
      5 C5        -10.3467   -1.0799   58.0544 C.2     1  ZINC000053543817    0.0000
      6 C6         -9.9628   -1.3512   59.4886 C.3     1  ZINC000053543817   -0.0300
      7 C7         -9.4597   -0.0435   60.1115 C.3     1  ZINC000053543817   -0.0500
      8 C8        -10.6332    0.9228   60.2854 C.3     1  ZINC000053543817   -0.1500
      9 C9         -8.8343   -0.3369   61.4767 C.3     1  ZINC000053543817   -0.1400
     10 C10        -8.4091    0.5895   59.1949 C.3     1  ZINC000053543817   -0.1200
     11 C11        -9.0900    1.1104   57.9227 C.3     1  ZINC000053543817    0.2200
     12 H12        -9.7039    1.9782   58.1639 H       1  ZINC000053543817    0.1000
     13 N13        -8.0732    1.4843   56.9366 N.am    1  ZINC000053543817   -0.7100
     14 C14        -7.5926    2.7432   56.9082 C.2     1  ZINC000053543817    0.5100
     15 O15        -8.0030    3.5668   57.6981 O.2     1  ZINC000053543817   -0.5300
     16 C16        -6.5453    3.1272   55.8950 C.3     1  ZINC000053543817    0.1400
     17 H17        -6.4539    4.2128   55.8604 H       1  ZINC000053543817    0.1200
     18 C18        -6.9542    2.6056   54.5161 C.3     1  ZINC000053543817   -0.1600
     19 N19        -5.2582    2.5408   56.2769 N.am    1  ZINC000053543817   -0.7000
     20 C20        -4.3400    3.2903   56.9186 C.2     1  ZINC000053543817    0.6600
     21 O21        -4.5792    4.4528   57.1791 O.2     1  ZINC000053543817   -0.5700
     22 O22        -3.1579    2.7509   57.2710 O.3     1  ZINC000053543817   -0.3600
     23 C23        -2.0051    3.1033   56.4617 C.3     1  ZINC000053543817    0.1400
     24 C24        -1.4226    4.4296   56.9541 C.3     1  ZINC000053543817   -0.1800
     25 C25        -0.9452    2.0061   56.5785 C.3     1  ZINC000053543817   -0.1400
     26 C26        -2.4327    3.2457   54.9995 C.3     1  ZINC000053543817   -0.1800
     27 O27       -11.1072   -1.8341   57.2519 O.3     1  ZINC000053543817   -0.1700
     28 H28       -12.4447   -2.7258   55.1361 H       1  ZINC000053543817    0.0800
     29 H29       -12.7481   -1.0623   54.5804 H       1  ZINC000053543817    0.0800
     30 H30       -11.2969   -1.9338   54.0300 H       1  ZINC000053543817    0.0800
     31 H31       -10.3999    0.6160   55.2677 H       1  ZINC000053543817    0.1400
     32 H32       -10.8328   -1.7086   60.0394 H       1  ZINC000053543817    0.0900
     33 H33        -9.1718   -2.1005   59.5206 H       1  ZINC000053543817    0.0900
     34 H34       -11.3805    0.4728   60.9389 H       1  ZINC000053543817    0.0600
     35 H35       -10.2757    1.8524   60.7282 H       1  ZINC000053543817    0.0600
     36 H36       -11.0791    1.1314   59.3130 H       1  ZINC000053543817    0.0600
     37 H37        -7.9987   -1.0257   61.3532 H       1  ZINC000053543817    0.0600
     38 H38        -8.4766    0.5926   61.9198 H       1  ZINC000053543817    0.0600
     39 H39        -9.5823   -0.7864   62.1300 H       1  ZINC000053543817    0.0600
     40 H40        -7.9257    1.4174   59.7135 H       1  ZINC000053543817    0.0800
     41 H41        -7.6622   -0.1580   58.9277 H       1  ZINC000053543817    0.0700
     42 H42        -7.7457    0.8258   56.3041 H       1  ZINC000053543817    0.4000
     43 H43        -7.9119    3.0418   54.2319 H       1  ZINC000053543817    0.0800
     44 H44        -6.1967    2.8833   53.7831 H       1  ZINC000053543817    0.0800
     45 H45        -7.0455    1.5200   54.5507 H       1  ZINC000053543817    0.0700
     46 H46        -5.0668    1.6131   56.0679 H       1  ZINC000053543817    0.4200
     47 H47        -1.1178    4.3282   57.9957 H       1  ZINC000053543817    0.0600
     48 H48        -0.5571    4.6943   56.3465 H       1  ZINC000053543817    0.0700
     49 H49        -2.1777    5.2113   56.8708 H       1  ZINC000053543817    0.0900
     50 H50        -1.3602    1.0612   56.2277 H       1  ZINC000053543817    0.0700
     51 H51        -0.0798    2.2708   55.9709 H       1  ZINC000053543817    0.0800
     52 H52        -0.6405    1.9047   57.6201 H       1  ZINC000053543817    0.0700
     53 H53        -3.1879    4.0274   54.9163 H       1  ZINC000053543817    0.0900
     54 H54        -1.5674    3.5103   54.3919 H       1  ZINC000053543817    0.0700
     55 H55        -2.8478    2.3008   54.6488 H       1  ZINC000053543817    0.0600
@<TRIPOS>BOND
     1     1     2    1
     2     1    28    1
     3     1    29    1
     4     1    30    1
     5     2    27    1
     6     2     3    2
     7     3     4    1
     8     3    31    1
     9     4    11    1
    10     4     5    2
    11     5     6    1
    12     5    27    1
    13     6     7    1
    14     6    32    1
    15     6    33    1
    16     7     8    1
    17     7     9    1
    18     7    10    1
    19     8    34    1
    20     8    35    1
    21     8    36    1
    22     9    37    1
    23     9    38    1
    24     9    39    1
    25    10    11    1
    26    10    40    1
    27    10    41    1
    28    11    12    1
    29    11    13    1
    30    13    14   am
    31    13    42    1
    32    14    15    2
    33    14    16    1
    34    16    17    1
    35    16    18    1
    36    16    19    1
    37    18    43    1
    38    18    44    1
    39    18    45    1
    40    19    20   am
    41    19    46    1
    42    20    21    2
    43    20    22    1
    44    22    23    1
    45    23    24    1
    46    23    25    1
    47    23    26    1
    48    24    47    1
    49    24    48    1
    50    24    49    1
    51    25    50    1
    52    25    51    1
    53    25    52    1
    54    26    53    1
    55    26    54    1
    56    26    55    1
@<TRIPOS>SUBSTRUCTURE
     1 ZINC000053543817        1 TEMP              0 ****  ****    0 ROOT


##########                                Name:    ZINC001083519372
##########                DOCK_Rotatable_Bonds:                   7
##########                         Heavy_Atoms:                  27
##########                    Molecular_Weight:             370.411
##########                DOCK_Rotatable_Bonds:                   7
##########                       Formal_Charge:           0.0399996
##########                     HBond_Acceptors:                   9
##########                        HBond_Donors:                   2
##########                         Heavy_Atoms:                  27
##########                          Grid_Score:          -30.267553
##########                     Grid_vdw_energy:          -28.154238
##########                      Grid_es_energy:           -2.113315
##########           Internal_energy_repulsive:            8.344211

@<TRIPOS>MOLECULE
ZINC001083519372
 49 52 1 0 0
SMALL
USER_CHARGES


@<TRIPOS>ATOM
      1 C1          1.6896    4.8813   44.8492 C.3     1  ZINC001083519372   -0.1500
      2 C2          1.6809    3.5720   44.0578 C.3     1  ZINC001083519372   -0.0100
      3 C3          2.2500    3.8180   42.6589 C.3     1  ZINC001083519372   -0.1500
      4 C4          2.5260    2.5482   44.7710 C.2     1  ZINC001083519372   -0.0100
      5 C5          2.1790    1.8487   45.8640 C.2     1  ZINC001083519372   -0.0100
      6 C6          0.8690    1.9451   46.6027 C.3     1  ZINC001083519372    0.1300
      7 N7          1.0731    2.6592   47.8702 N.3     1  ZINC001083519372   -0.5000
      8 C8         -0.2207    2.9044   48.5573 C.3     1  ZINC001083519372    0.0300
      9 C9          0.2002    3.1532   50.0274 C.3     1  ZINC001083519372    0.1500
     10 H10         0.5441    4.1788   50.1620 H       1  ZINC001083519372    0.1200
     11 N11        -0.9058    2.8551   50.9408 N.am    1  ZINC001083519372   -0.6900
     12 C12        -1.6328    3.8595   51.4690 C.2     1  ZINC001083519372    0.5600
     13 O13        -1.3719    5.0130   51.1863 O.2     1  ZINC001083519372   -0.5100
     14 C14        -2.7453    3.5596   52.3900 C.2     1  ZINC001083519372    0.1400
     15 C15        -2.5970    3.7282   53.7404 C.2     1  ZINC001083519372   -0.1500
     16 C16        -3.6725    3.4346   54.5894 C.2     1  ZINC001083519372    0.1800
     17 N17        -4.8091    3.0029   54.0978 N.2     1  ZINC001083519372   -0.4400
     18 C18        -4.9737    2.8317   52.7821 C.2     1  ZINC001083519372    0.2500
     19 C19        -6.0508    2.3958   52.0179 C.2     1  ZINC001083519372   -0.2500
     20 C20        -5.6583    2.4135   50.6897 C.2     1  ZINC001083519372    0.1000
     21 N21        -4.4140    2.8330   50.6156 N.2     1  ZINC001083519372   -0.3100
     22 N22        -3.9531    3.1103   51.9071 N.pl3   1  ZINC001083519372   -0.3100
     23 C23         1.3640    2.1553   50.2274 C.3     1  ZINC001083519372    0.0900
     24 H24         2.1520    2.6088   50.8288 H       1  ZINC001083519372    0.0800
     25 O25         0.8908    0.9600   50.8512 O.3     1  ZINC001083519372   -0.5600
     26 C26         1.8817    1.8518   48.8093 C.3     1  ZINC001083519372    0.0100
     27 N27         3.2112    1.0467   46.1800 N.2     1  ZINC001083519372   -0.4800
     28 C28         4.1679    1.2376   45.3170 C.2     1  ZINC001083519372    0.1700
     29 O29         3.7696    2.1581   44.4288 O.3     1  ZINC001083519372   -0.2000
     30 H30         1.2843    4.7062   45.8458 H       1  ZINC001083519372    0.0600
     31 H31         2.7125    5.2488   44.9326 H       1  ZINC001083519372    0.0600
     32 H32         1.0784    5.6218   44.3334 H       1  ZINC001083519372    0.0700
     33 H33         0.6582    3.2046   43.9745 H       1  ZINC001083519372    0.1000
     34 H34         3.2728    4.1854   42.7422 H       1  ZINC001083519372    0.0600
     35 H35         2.2438    2.8852   42.0950 H       1  ZINC001083519372    0.0600
     36 H36         1.6388    4.5585   42.1430 H       1  ZINC001083519372    0.0700
     37 H37         0.1467    2.4872   45.9924 H       1  ZINC001083519372    0.0900
     38 H38         0.4925    0.9428   46.8070 H       1  ZINC001083519372    0.0600
     39 H39        -0.7149    3.7839   48.1444 H       1  ZINC001083519372    0.1000
     40 H40        -0.8666    2.0294   48.4848 H       1  ZINC001083519372    0.0600
     41 H41        -1.1148    1.9349   51.1654 H       1  ZINC001083519372    0.4300
     42 H42        -1.6616    4.0833   54.1468 H       1  ZINC001083519372    0.1800
     43 H43        -3.5644    3.5643   55.6562 H       1  ZINC001083519372    0.1900
     44 H44        -7.0186    2.0970   52.3926 H       1  ZINC001083519372    0.1700
     45 H45        -6.2749    2.1286   49.8501 H       1  ZINC001083519372    0.2000
     46 H46         0.6368    1.0736   51.7773 H       1  ZINC001083519372    0.3900
     47 H47         1.7590    0.7916   48.5881 H       1  ZINC001083519372    0.0700
     48 H48         2.9322    2.1313   48.7297 H       1  ZINC001083519372    0.0900
     49 H49         5.1232    0.7339   45.3153 H       1  ZINC001083519372    0.2500
@<TRIPOS>BOND
     1     1     2    1
     2     1    30    1
     3     1    31    1
     4     1    32    1
     5     2     3    1
     6     2     4    1
     7     2    33    1
     8     3    34    1
     9     3    35    1
    10     3    36    1
    11     4    29    1
    12     4     5    2
    13     5     6    1
    14     5    27    1
    15     6     7    1
    16     6    37    1
    17     6    38    1
    18     7    26    1
    19     7     8    1
    20     8     9    1
    21     8    39    1
    22     8    40    1
    23     9    10    1
    24     9    11    1
    25     9    23    1
    26    11    12   am
    27    11    41    1
    28    12    13    2
    29    12    14    1
    30    14    22    1
    31    14    15    2
    32    15    16    1
    33    15    42    1
    34    16    17    2
    35    16    43    1
    36    17    18    1
    37    18    22    1
    38    18    19    2
    39    19    20    1
    40    19    44    1
    41    20    21    2
    42    20    45    1
    43    21    22    1
    44    23    24    1
    45    23    25    1
    46    23    26    1
    47    25    46    1
    48    26    47    1
    49    26    48    1
    50    27    28    2
    51    28    29    1
    52    28    49    1
@<TRIPOS>SUBSTRUCTURE
     1 ZINC001083519372        1 TEMP              0 ****  ****    0 ROOT


##########                                Name:    ZINC000550952205
##########                DOCK_Rotatable_Bonds:                   7
##########                         Heavy_Atoms:                  28
##########                    Molecular_Weight:             407.484
##########                DOCK_Rotatable_Bonds:                   7
##########                       Formal_Charge:        -2.68221e-07
##########                     HBond_Acceptors:                   8
##########                        HBond_Donors:                   2
##########                         Heavy_Atoms:                  28
##########                          Grid_Score:          -30.262756
##########                     Grid_vdw_energy:          -29.160603
##########                      Grid_es_energy:           -1.102154
##########           Internal_energy_repulsive:            8.228811

@<TRIPOS>MOLECULE
ZINC000550952205
 51 54 1 0 0
SMALL
USER_CHARGES


@<TRIPOS>ATOM
      1 O1         -1.4554    5.0505   50.6334 O.2     1  ZINC000550952205   -0.5100
      2 C2         -1.5502    4.0378   51.2954 C.2     1  ZINC000550952205    0.5100
      3 N3         -0.4427    3.3495   51.6365 N.am    1  ZINC000550952205   -0.7000
      4 C4          0.8751    3.8208   51.2032 C.3     1  ZINC000550952205    0.1200
      5 C5          1.3741    2.9495   50.0489 C.3     1  ZINC000550952205   -0.0900
      6 H6          2.3422    3.3150   49.7061 H       1  ZINC000550952205    0.1000
      7 C7          1.5073    1.5241   50.5124 C.3     1  ZINC000550952205   -0.1300
      8 C8          2.6810    0.7912   49.8349 C.3     1  ZINC000550952205   -0.1200
      9 C9          2.7931    1.1050   48.3308 C.3     1  ZINC000550952205   -0.1300
     10 C10         1.4530    1.1325   47.6469 C.3     1  ZINC000550952205   -0.1500
     11 C11         0.9460    2.5890   47.6208 C.3     1  ZINC000550952205    0.3000
     12 F12         2.0193    3.4370   47.3270 F       1  ZINC000550952205   -0.2000
     13 F13        -0.0187    2.7150   46.6155 F       1  ZINC000550952205   -0.2000
     14 C14         0.3608    2.9985   48.8871 C.3     1  ZINC000550952205   -0.1700
     15 C15        -2.8933    3.5574   51.7371 C.2     1  ZINC000550952205    0.5100
     16 O16        -3.0382    3.1015   52.8527 O.2     1  ZINC000550952205   -0.4900
     17 N17        -3.9447    3.6301   50.8970 N.am    1  ZINC000550952205   -0.6400
     18 C18        -5.2021    3.1804   51.3104 C.ar    1  ZINC000550952205    0.1500
     19 C19        -6.1326    4.0832   51.8226 C.ar    1  ZINC000550952205   -0.1200
     20 C20        -7.3605    3.6598   52.2288 C.ar    1  ZINC000550952205   -0.0400
     21 C21        -7.7146    2.2981   52.1391 C.ar    1  ZINC000550952205    0.0800
     22 N22        -8.8636    1.6852   52.4835 N.2     1  ZINC000550952205   -0.4700
     23 C23        -8.9441    0.4215   52.3037 C.2     1  ZINC000550952205    0.1200
     24 C24       -10.1585   -0.4065   52.6367 C.3     1  ZINC000550952205   -0.1100
     25 C25       -10.4362   -0.6907   54.1143 C.3     1  ZINC000550952205   -0.1500
     26 C26       -11.3188    0.2947   53.3456 C.3     1  ZINC000550952205   -0.1500
     27 S27        -7.5050   -0.2097   51.6386 S.3     1  ZINC000550952205    0.1200
     28 C28        -6.7781    1.3941   51.6238 C.ar    1  ZINC000550952205   -0.1700
     29 C29        -5.5269    1.8393   51.2064 C.ar    1  ZINC000550952205   -0.0700
     30 H30        -0.5181    2.5422   52.1689 H       1  ZINC000550952205    0.4200
     31 H31         0.7994    4.8561   50.8706 H       1  ZINC000550952205    0.0800
     32 H32         1.5756    3.7569   52.0358 H       1  ZINC000550952205    0.0800
     33 H33         1.6628    1.5172   51.5912 H       1  ZINC000550952205    0.0700
     34 H34         0.5828    0.9923   50.2879 H       1  ZINC000550952205    0.0700
     35 H35         3.6091    1.0850   50.3254 H       1  ZINC000550952205    0.0700
     36 H36         2.5444   -0.2829   49.9606 H       1  ZINC000550952205    0.0700
     37 H37         3.2716    2.0766   48.2079 H       1  ZINC000550952205    0.0800
     38 H38         3.4151    0.3453   47.8574 H       1  ZINC000550952205    0.0700
     39 H39         1.5548    0.7619   46.6269 H       1  ZINC000550952205    0.0900
     40 H40         0.7482    0.5093   48.1973 H       1  ZINC000550952205    0.1000
     41 H41        -0.4709    2.3346   49.1227 H       1  ZINC000550952205    0.1000
     42 H42        -0.0190    4.0155   48.7879 H       1  ZINC000550952205    0.1000
     43 H43        -3.8290    3.9945   50.0056 H       1  ZINC000550952205    0.4300
     44 H44        -5.8762    5.1296   51.8981 H       1  ZINC000550952205    0.1400
     45 H45        -8.0692    4.3727   52.6236 H       1  ZINC000550952205    0.1400
     46 H46       -10.4060   -1.1880   51.9183 H       1  ZINC000550952205    0.1300
     47 H47       -10.8664   -1.6595   54.3682 H       1  ZINC000550952205    0.1000
     48 H48        -9.7406   -0.2788   54.8454 H       1  ZINC000550952205    0.1100
     49 H49       -11.2040    1.3550   53.5712 H       1  ZINC000550952205    0.1000
     50 H50       -12.3299   -0.0257   53.0940 H       1  ZINC000550952205    0.1100
     51 H51        -4.8100    1.1387   50.8045 H       1  ZINC000550952205    0.1400
@<TRIPOS>BOND
     1     1     2    2
     2     2     3   am
     3     2    15    1
     4     3     4    1
     5     3    30    1
     6     4     5    1
     7     4    31    1
     8     4    32    1
     9     5     6    1
    10     5    14    1
    11     5     7    1
    12     7     8    1
    13     7    33    1
    14     7    34    1
    15     8     9    1
    16     8    35    1
    17     8    36    1
    18     9    10    1
    19     9    37    1
    20     9    38    1
    21    10    11    1
    22    10    39    1
    23    10    40    1
    24    11    12    1
    25    11    13    1
    26    11    14    1
    27    14    41    1
    28    14    42    1
    29    15    16    2
    30    15    17   am
    31    17    18    1
    32    17    43    1
    33    18    29   ar
    34    18    19   ar
    35    19    20   ar
    36    19    44    1
    37    20    21   ar
    38    20    45    1
    39    21    28   ar
    40    21    22    1
    41    22    23    2
    42    23    24    1
    43    23    27    1
    44    24    26    1
    45    24    25    1
    46    24    46    1
    47    25    26    1
    48    25    47    1
    49    25    48    1
    50    26    49    1
    51    26    50    1
    52    27    28    1
    53    28    29   ar
    54    29    51    1
@<TRIPOS>SUBSTRUCTURE
     1 ZINC000550952205        1 TEMP              0 ****  ****    0 ROOT


##########                                Name:    ZINC000981700465
##########                DOCK_Rotatable_Bonds:                   9
##########                         Heavy_Atoms:                  26
##########                    Molecular_Weight:             356.428
##########                DOCK_Rotatable_Bonds:                   9
##########                       Formal_Charge:               -0.01
##########                     HBond_Acceptors:                   8
##########                        HBond_Donors:                   3
##########                         Heavy_Atoms:                  26
##########                          Grid_Score:          -30.226442
##########                     Grid_vdw_energy:          -29.809155
##########                      Grid_es_energy:           -0.417287
##########           Internal_energy_repulsive:            9.961907

@<TRIPOS>MOLECULE
ZINC000981700465
 50 52 1 0 0
SMALL
USER_CHARGES


@<TRIPOS>ATOM
      1 C1         -7.9668   -1.0814   59.7804 C.3     1  ZINC000981700465   -0.1500
      2 C2         -8.8273    0.1524   59.5005 C.3     1  ZINC000981700465   -0.1100
      3 C3        -10.0484    0.1423   60.4223 C.3     1  ZINC000981700465   -0.0500
      4 C4        -10.9826   -0.9645   60.0064 C.2     1  ZINC000981700465    0.1400
      5 N5        -11.2305   -2.0528   60.6816 N.2     1  ZINC000981700465   -0.2900
      6 N6        -12.1484   -2.8305   59.9669 N.pl3   1  ZINC000981700465   -0.4600
      7 C7        -12.4579   -2.1866   58.8301 C.2     1  ZINC000981700465    0.1000
      8 C8        -11.7485   -1.0025   58.8196 C.2     1  ZINC000981700465   -0.2900
      9 C9        -11.7766    0.0253   57.7630 C.2     1  ZINC000981700465    0.5900
     10 O10       -11.8229    1.2031   58.0615 O.2     1  ZINC000981700465   -0.5300
     11 N11       -11.7510   -0.3408   56.4661 N.am    1  ZINC000981700465   -0.7300
     12 C12       -11.7807    0.6804   55.4161 C.3     1  ZINC000981700465    0.1300
     13 C13       -11.5397    0.0212   54.0566 C.3     1  ZINC000981700465   -0.1100
     14 H14       -12.1398   -0.8836   53.9607 H       1  ZINC000981700465    0.0900
     15 C15       -11.8633    1.0105   52.9094 C.3     1  ZINC000981700465   -0.1200
     16 C16       -11.0259    0.4535   51.7315 C.3     1  ZINC000981700465   -0.1300
     17 C17        -9.7155   -0.0235   52.3910 C.3     1  ZINC000981700465    0.1400
     18 H18        -9.3662   -0.9370   51.9097 H       1  ZINC000981700465    0.1000
     19 N19        -8.6928    1.0203   52.2877 N.am    1  ZINC000981700465   -0.7100
     20 C20        -7.4858    0.7315   51.7621 C.2     1  ZINC000981700465    0.5600
     21 O21        -7.2454   -0.3951   51.3752 O.2     1  ZINC000981700465   -0.5200
     22 C22        -6.4523    1.7874   51.6560 C.ar    1  ZINC000981700465   -0.1400
     23 C23        -5.1258    1.4731   51.3336 C.ar    1  ZINC000981700465   -0.0600
     24 C24        -4.2160    2.5148   51.2523 C.ar    1  ZINC000981700465    0.0400
     25 N25        -4.6107    3.7532   51.4755 N.ar    1  ZINC000981700465   -0.2200
     26 N26        -5.8237    4.0477   51.7711 N.ar    1  ZINC000981700465   -0.2400
     27 C27        -6.7681    3.1323   51.8684 C.ar    1  ZINC000981700465    0.0700
     28 C28       -10.0426   -0.3016   53.8708 C.3     1  ZINC000981700465   -0.1200
     29 H29        -8.5528   -1.9821   59.5974 H       1  ZINC000981700465    0.0600
     30 H30        -7.0969   -1.0742   59.1237 H       1  ZINC000981700465    0.0600
     31 H31        -7.6378   -1.0668   60.8194 H       1  ZINC000981700465    0.0500
     32 H32        -8.2414    1.0531   59.6836 H       1  ZINC000981700465    0.0600
     33 H33        -9.1563    0.1378   58.4615 H       1  ZINC000981700465    0.0600
     34 H34        -9.7261   -0.0214   61.4506 H       1  ZINC000981700465    0.1000
     35 H35       -10.5650    1.0995   60.3515 H       1  ZINC000981700465    0.0800
     36 H36       -12.5015   -3.6898   60.2457 H       1  ZINC000981700465    0.4500
     37 H37       -13.1401   -2.5299   58.0665 H       1  ZINC000981700465    0.1800
     38 H38       -11.7128   -1.2803   56.2280 H       1  ZINC000981700465    0.4000
     39 H39       -12.7537    1.1717   55.4144 H       1  ZINC000981700465    0.0700
     40 H40       -11.0014    1.4187   55.6051 H       1  ZINC000981700465    0.0700
     41 H41       -12.9266    0.9907   52.6709 H       1  ZINC000981700465    0.0700
     42 H42       -11.5429    2.0197   53.1679 H       1  ZINC000981700465    0.0700
     43 H43       -11.5414   -0.3825   51.2588 H       1  ZINC000981700465    0.0800
     44 H44       -10.8226    1.2386   51.0032 H       1  ZINC000981700465    0.0700
     45 H45        -8.8842    1.9193   52.5976 H       1  ZINC000981700465    0.4000
     46 H46        -4.8223    0.4522   51.1547 H       1  ZINC000981700465    0.1700
     47 H47        -3.1839    2.3127   51.0064 H       1  ZINC000981700465    0.1800
     48 H48        -7.7786    3.4193   52.1191 H       1  ZINC000981700465    0.1700
     49 H49        -9.4412    0.3414   54.5134 H       1  ZINC000981700465    0.0800
     50 H50        -9.8510   -1.3487   54.1052 H       1  ZINC000981700465    0.0800
@<TRIPOS>BOND
     1     1     2    1
     2     1    29    1
     3     1    30    1
     4     1    31    1
     5     2     3    1
     6     2    32    1
     7     2    33    1
     8     3     4    1
     9     3    34    1
    10     3    35    1
    11     4     8    1
    12     4     5    2
    13     5     6    1
    14     6     7    1
    15     6    36    1
    16     7     8    2
    17     7    37    1
    18     8     9    1
    19     9    10    2
    20     9    11   am
    21    11    12    1
    22    11    38    1
    23    12    13    1
    24    12    39    1
    25    12    40    1
    26    13    14    1
    27    13    28    1
    28    13    15    1
    29    15    16    1
    30    15    41    1
    31    15    42    1
    32    16    17    1
    33    16    43    1
    34    16    44    1
    35    17    18    1
    36    17    19    1
    37    17    28    1
    38    19    20   am
    39    19    45    1
    40    20    21    2
    41    20    22    1
    42    22    27   ar
    43    22    23   ar
    44    23    24   ar
    45    23    46    1
    46    24    25   ar
    47    24    47    1
    48    25    26   ar
    49    26    27   ar
    50    27    48    1
    51    28    49    1
    52    28    50    1
@<TRIPOS>SUBSTRUCTURE
     1 ZINC000981700465        1 TEMP              0 ****  ****    0 ROOT


##########                                Name:    ZINC000050607728
##########                DOCK_Rotatable_Bonds:                  10
##########                         Heavy_Atoms:                  31
##########                    Molecular_Weight:             416.476
##########                DOCK_Rotatable_Bonds:                  10
##########                       Formal_Charge:          -0.0199995
##########                     HBond_Acceptors:                   6
##########                        HBond_Donors:                   1
##########                         Heavy_Atoms:                  31
##########                          Grid_Score:          -30.215847
##########                     Grid_vdw_energy:          -28.722820
##########                      Grid_es_energy:           -1.493027
##########           Internal_energy_repulsive:           12.376056

@<TRIPOS>MOLECULE
ZINC000050607728
 55 57 1 0 0
SMALL
USER_CHARGES


@<TRIPOS>ATOM
      1 C1        -11.9009    0.5668   51.1548 C.3     1  ZINC000050607728    0.0800
      2 N2        -10.6557    0.7785   51.8970 N.am    1  ZINC000050607728   -0.6200
      3 C3         -9.7520   -0.3471   52.1475 C.3     1  ZINC000050607728    0.0700
      4 C4        -10.3415    2.0085   52.3493 C.2     1  ZINC000050607728    0.5600
      5 O5        -11.0912    2.9424   52.1414 O.2     1  ZINC000050607728   -0.5300
      6 C6         -9.0848    2.2221   53.0982 C.ar    1  ZINC000050607728   -0.1400
      7 C7         -7.8666    2.2836   52.4201 C.ar    1  ZINC000050607728   -0.0800
      8 C8         -6.6975    2.4836   53.1250 C.ar    1  ZINC000050607728   -0.1300
      9 C9         -6.7310    2.6225   54.5010 C.ar    1  ZINC000050607728   -0.0700
     10 C10        -7.9355    2.5619   55.1795 C.ar    1  ZINC000050607728   -0.1100
     11 C11        -7.9624    2.7137   56.6787 C.3     1  ZINC000050607728    0.1100
     12 O12        -8.8327    1.7027   57.2519 O.3     1  ZINC000050607728   -0.3400
     13 C13        -8.5601    1.3029   58.5040 C.2     1  ZINC000050607728    0.4700
     14 O14        -7.4612    0.8821   58.7780 O.2     1  ZINC000050607728   -0.5000
     15 C15        -9.6248    1.3787   59.5678 C.3     1  ZINC000050607728    0.2000
     16 H16       -10.1374    2.3384   59.5011 H       1  ZINC000050607728    0.1400
     17 N17       -10.5904    0.2947   59.3705 N.am    1  ZINC000050607728   -0.7100
     18 C18       -11.8030    0.3578   59.9552 C.2     1  ZINC000050607728    0.5700
     19 O19       -12.0963    1.3147   60.6449 O.2     1  ZINC000050607728   -0.5200
     20 C20       -12.7768   -0.7371   59.7576 C.ar    1  ZINC000050607728   -0.1400
     21 C21       -13.9052   -0.8274   60.5741 C.ar    1  ZINC000050607728   -0.0800
     22 C22       -14.8102   -1.8512   60.3840 C.ar    1  ZINC000050607728   -0.1300
     23 C23       -14.6009   -2.7874   59.3870 C.ar    1  ZINC000050607728   -0.0900
     24 C24       -13.4842   -2.7038   58.5745 C.ar    1  ZINC000050607728   -0.1300
     25 C25       -12.5746   -1.6814   58.7499 C.ar    1  ZINC000050607728   -0.0600
     26 C26        -8.9877    1.2429   60.9267 C.ar    1  ZINC000050607728   -0.1000
     27 C27        -8.7466    2.3680   61.6926 C.ar    1  ZINC000050607728   -0.1000
     28 C28        -8.1622    2.2434   62.9392 C.ar    1  ZINC000050607728   -0.1200
     29 C29        -7.8193    0.9936   63.4199 C.ar    1  ZINC000050607728   -0.1100
     30 C30        -8.0612   -0.1317   62.6543 C.ar    1  ZINC000050607728   -0.1200
     31 C31        -8.6496   -0.0075   61.4096 C.ar    1  ZINC000050607728   -0.0800
     32 C32        -9.1121    2.3687   54.4862 C.ar    1  ZINC000050607728   -0.0400
     33 H33       -12.7010    0.3160   51.8514 H       1  ZINC000050607728    0.0600
     34 H34       -12.1615    1.4773   50.6150 H       1  ZINC000050607728    0.0800
     35 H35       -11.7671   -0.2502   50.4459 H       1  ZINC000050607728    0.0700
     36 H36        -9.0921   -0.4810   51.2903 H       1  ZINC000050607728    0.0600
     37 H37        -9.1556   -0.1433   53.0368 H       1  ZINC000050607728    0.0800
     38 H38       -10.3359   -1.2545   52.3017 H       1  ZINC000050607728    0.0700
     39 H39        -7.8391    2.1747   51.3459 H       1  ZINC000050607728    0.1400
     40 H40        -5.7540    2.5315   52.6015 H       1  ZINC000050607728    0.1400
     41 H41        -5.8130    2.7784   55.0481 H       1  ZINC000050607728    0.1300
     42 H42        -6.9542    2.5921   57.0744 H       1  ZINC000050607728    0.0900
     43 H43        -8.3370    3.7043   56.9368 H       1  ZINC000050607728    0.0900
     44 H44       -10.3568   -0.4684   58.8192 H       1  ZINC000050607728    0.4100
     45 H45       -14.0694   -0.0977   61.3531 H       1  ZINC000050607728    0.1300
     46 H46       -15.6837   -1.9223   61.0151 H       1  ZINC000050607728    0.1300
     47 H47       -15.3123   -3.5871   59.2426 H       1  ZINC000050607728    0.1300
     48 H48       -13.3265   -3.4380   57.7982 H       1  ZINC000050607728    0.1300
     49 H49       -11.7035   -1.6172   58.1147 H       1  ZINC000050607728    0.1400
     50 H50        -9.0146    3.3445   61.3171 H       1  ZINC000050607728    0.1200
     51 H51        -7.9733    3.1226   63.5373 H       1  ZINC000050607728    0.1200
     52 H52        -7.3621    0.8963   64.3935 H       1  ZINC000050607728    0.1200
     53 H53        -7.7930   -1.1082   63.0299 H       1  ZINC000050607728    0.1300
     54 H54        -8.8385   -0.8866   60.8115 H       1  ZINC000050607728    0.1300
     55 H55       -10.0516    2.3220   55.0169 H       1  ZINC000050607728    0.1300
@<TRIPOS>BOND
     1     1     2    1
     2     1    33    1
     3     1    34    1
     4     1    35    1
     5     2     3    1
     6     2     4   am
     7     3    36    1
     8     3    37    1
     9     3    38    1
    10     4     5    2
    11     4     6    1
    12     6    32   ar
    13     6     7   ar
    14     7     8   ar
    15     7    39    1
    16     8     9   ar
    17     8    40    1
    18     9    10   ar
    19     9    41    1
    20    10    11    1
    21    10    32   ar
    22    11    12    1
    23    11    42    1
    24    11    43    1
    25    12    13    1
    26    13    14    2
    27    13    15    1
    28    15    16    1
    29    15    17    1
    30    15    26    1
    31    17    18   am
    32    17    44    1
    33    18    19    2
    34    18    20    1
    35    20    25   ar
    36    20    21   ar
    37    21    22   ar
    38    21    45    1
    39    22    23   ar
    40    22    46    1
    41    23    24   ar
    42    23    47    1
    43    24    25   ar
    44    24    48    1
    45    25    49    1
    46    26    31   ar
    47    26    27   ar
    48    27    28   ar
    49    27    50    1
    50    28    29   ar
    51    28    51    1
    52    29    30   ar
    53    29    52    1
    54    30    31   ar
    55    30    53    1
    56    31    54    1
    57    32    55    1
@<TRIPOS>SUBSTRUCTURE
     1 ZINC000050607728        1 TEMP              0 ****  ****    0 ROOT


##########                                Name:    ZINC000655982608
##########                DOCK_Rotatable_Bonds:                   5
##########                         Heavy_Atoms:                  29
##########                    Molecular_Weight:             388.469
##########                DOCK_Rotatable_Bonds:                   5
##########                       Formal_Charge:          -0.0200006
##########                     HBond_Acceptors:                   6
##########                        HBond_Donors:                   0
##########                         Heavy_Atoms:                  29
##########                          Grid_Score:          -30.203810
##########                     Grid_vdw_energy:          -30.976761
##########                      Grid_es_energy:            0.772952
##########           Internal_energy_repulsive:           19.850492

@<TRIPOS>MOLECULE
ZINC000655982608
 53 57 1 0 0
SMALL
USER_CHARGES


@<TRIPOS>ATOM
      1 C1         -1.2367    1.9648   47.1364 C.3     1  ZINC000655982608   -0.1900
      2 C2         -0.4437    2.5210   48.3208 C.3     1  ZINC000655982608    0.0800
      3 H3         -0.5944    3.5986   48.3850 H       1  ZINC000655982608    0.1000
      4 C4         -0.9270    1.8604   49.6134 C.3     1  ZINC000655982608   -0.0300
      5 C5         -2.0642    2.6621   50.1925 C.2     1  ZINC000655982608    0.2000
      6 N6         -3.2852    2.2383   50.4135 N.2     1  ZINC000655982608   -0.4800
      7 C7         -3.9448    3.2894   50.9322 C.2     1  ZINC000655982608    0.1700
      8 C8         -5.3902    3.3133   51.3583 C.3     1  ZINC000655982608   -0.0100
      9 H9         -5.9079    4.1700   50.9267 H       1  ZINC000655982608    0.1300
     10 C10        -6.0996    1.9916   50.9832 C.3     1  ZINC000655982608   -0.1400
     11 C11        -7.0406    1.7345   52.1395 C.2     1  ZINC000655982608    0.5200
     12 O12        -7.9733    0.9596   52.1171 O.2     1  ZINC000655982608   -0.5000
     13 N13        -6.6922    2.4896   53.1957 N.am    1  ZINC000655982608   -0.5600
     14 C14        -7.3675    2.4923   54.4212 C.ar    1  ZINC000655982608    0.1600
     15 C15        -8.7442    2.6716   54.4566 C.ar    1  ZINC000655982608   -0.1600
     16 C16        -9.4079    2.6739   55.6678 C.ar    1  ZINC000655982608   -0.0900
     17 C17        -8.7030    2.4984   56.8444 C.ar    1  ZINC000655982608   -0.1400
     18 C18        -7.3321    2.3201   56.8127 C.ar    1  ZINC000655982608   -0.0900
     19 C19        -6.6634    2.3102   55.6042 C.ar    1  ZINC000655982608   -0.1600
     20 C20        -5.5127    3.3116   52.8982 C.3     1  ZINC000655982608    0.1100
     21 N21        -3.1069    4.2803   50.9988 N.2     1  ZINC000655982608   -0.3700
     22 O22        -2.0192    3.9390   50.5841 O.3     1  ZINC000655982608    0.0900
     23 N23         0.9849    2.2370   48.1301 N.3     1  ZINC000655982608   -0.4700
     24 C24         1.2505    0.7836   48.2012 C.3     1  ZINC000655982608    0.0300
     25 C25         2.4571    0.6134   47.2498 C.3     1  ZINC000655982608   -0.0800
     26 C26         2.3095    1.7895   46.3050 C.ar    1  ZINC000655982608   -0.1400
     27 C27         2.8772    2.0529   45.0766 C.ar    1  ZINC000655982608   -0.0800
     28 C28         2.5657    3.2216   44.4050 C.ar    1  ZINC000655982608   -0.1400
     29 C29         1.6833    4.1252   44.9676 C.ar    1  ZINC000655982608   -0.0900
     30 C30         1.1141    3.8674   46.1976 C.ar    1  ZINC000655982608   -0.1400
     31 C31         1.4253    2.6939   46.8819 C.ar    1  ZINC000655982608    0.1000
     32 H32        -2.2793    2.2711   47.2213 H       1  ZINC000655982608    0.0700
     33 H33        -0.8193    2.3506   46.2064 H       1  ZINC000655982608    0.0700
     34 H34        -1.1764    0.8765   47.1377 H       1  ZINC000655982608    0.0700
     35 H35        -1.2688    0.8480   49.3982 H       1  ZINC000655982608    0.1200
     36 H36        -0.1071    1.8224   50.3306 H       1  ZINC000655982608    0.1100
     37 H37        -6.6589    2.1090   50.0550 H       1  ZINC000655982608    0.1200
     38 H38        -5.3753    1.1820   50.8935 H       1  ZINC000655982608    0.1200
     39 H39        -9.2951    2.8095   53.5380 H       1  ZINC000655982608    0.1200
     40 H40       -10.4784    2.8133   55.6960 H       1  ZINC000655982608    0.1300
     41 H41        -9.2243    2.5009   57.7903 H       1  ZINC000655982608    0.1200
     42 H42        -6.7843    2.1839   57.7334 H       1  ZINC000655982608    0.1300
     43 H43        -5.5926    2.1709   55.5800 H       1  ZINC000655982608    0.1500
     44 H44        -4.6226    2.8702   53.3464 H       1  ZINC000655982608    0.0900
     45 H45        -5.6578    4.3269   53.2673 H       1  ZINC000655982608    0.1000
     46 H46         1.5141    0.4879   49.2167 H       1  ZINC000655982608    0.1000
     47 H47         0.3921    0.2157   47.8425 H       1  ZINC000655982608    0.0700
     48 H48         3.3953    0.6765   47.8011 H       1  ZINC000655982608    0.0900
     49 H49         2.3902   -0.3290   46.7063 H       1  ZINC000655982608    0.0800
     50 H50         3.5664    1.3462   44.6383 H       1  ZINC000655982608    0.1200
     51 H51         3.0112    3.4279   43.4430 H       1  ZINC000655982608    0.1200
     52 H52         1.4390    5.0366   44.4423 H       1  ZINC000655982608    0.1300
     53 H53         0.4259    4.5774   46.6318 H       1  ZINC000655982608    0.1200
@<TRIPOS>BOND
     1     1     2    1
     2     1    32    1
     3     1    33    1
     4     1    34    1
     5     2     3    1
     6     2     4    1
     7     2    23    1
     8     4     5    1
     9     4    35    1
    10     4    36    1
    11     5    22    1
    12     5     6    2
    13     6     7    1
    14     7     8    1
    15     7    21    2
    16     8     9    1
    17     8    20    1
    18     8    10    1
    19    10    11    1
    20    10    37    1
    21    10    38    1
    22    11    12    2
    23    11    13   am
    24    13    14    1
    25    13    20    1
    26    14    19   ar
    27    14    15   ar
    28    15    16   ar
    29    15    39    1
    30    16    17   ar
    31    16    40    1
    32    17    18   ar
    33    17    41    1
    34    18    19   ar
    35    18    42    1
    36    19    43    1
    37    20    44    1
    38    20    45    1
    39    21    22    1
    40    23    31    1
    41    23    24    1
    42    24    25    1
    43    24    46    1
    44    24    47    1
    45    25    26    1
    46    25    48    1
    47    25    49    1
    48    26    31   ar
    49    26    27   ar
    50    27    28   ar
    51    27    50    1
    52    28    29   ar
    53    28    51    1
    54    29    30   ar
    55    29    52    1
    56    30    31   ar
    57    30    53    1
@<TRIPOS>SUBSTRUCTURE
     1 ZINC000655982608        1 TEMP              0 ****  ****    0 ROOT


##########                                Name:    ZINC000458730620
##########                DOCK_Rotatable_Bonds:                   9
##########                         Heavy_Atoms:                  25
##########                    Molecular_Weight:              375.44
##########                DOCK_Rotatable_Bonds:                   9
##########                       Formal_Charge:        -1.86265e-07
##########                     HBond_Acceptors:                   9
##########                        HBond_Donors:                   3
##########                         Heavy_Atoms:                  25
##########                          Grid_Score:          -30.195803
##########                     Grid_vdw_energy:          -28.299603
##########                      Grid_es_energy:           -1.896200
##########           Internal_energy_repulsive:           39.768330

@<TRIPOS>MOLECULE
ZINC000458730620
 48 49 1 0 0
SMALL
USER_CHARGES


@<TRIPOS>ATOM
      1 C1         -4.4513    5.1379   55.0408 C.3     1  ZINC000458730620   -0.1600
      2 C2         -3.9206    3.7356   55.3460 C.3     1  ZINC000458730620    0.2000
      3 C3         -4.8869    3.0193   56.2916 C.3     1  ZINC000458730620   -0.1600
      4 N4         -3.8043    2.9755   54.0990 N.am    1  ZINC000458730620   -0.7400
      5 C5         -2.9288    3.3653   53.1513 C.2     1  ZINC000458730620    0.7100
      6 O6         -2.2365    4.3487   53.3307 O.2     1  ZINC000458730620   -0.5800
      7 N7         -2.8206    2.6651   52.0049 N.am    1  ZINC000458730620   -0.7500
      8 C8         -1.8677    3.0878   50.9756 C.3     1  ZINC000458730620    0.1300
      9 C9         -2.2211    2.4166   49.6468 C.3     1  ZINC000458730620    0.1000
     10 N10        -1.5974    3.1548   48.5457 N.am    1  ZINC000458730620   -1.1100
     11 S11        -0.3620    2.4676   47.6831 S.o2    1  ZINC000458730620    2.7000
     12 O12        -0.8393    1.2067   47.2341 O.2     1  ZINC000458730620   -0.9400
     13 O13         0.1215    3.4736   46.8037 O.2     1  ZINC000458730620   -0.9400
     14 C14         0.9423    2.1302   48.8186 C.ar    1  ZINC000458730620   -0.7300
     15 C15         1.4691    0.8557   48.9067 C.ar    1  ZINC000458730620    0.0400
     16 C16         2.4927    0.5898   49.7966 C.ar    1  ZINC000458730620   -0.1800
     17 C17         2.9916    1.6003   50.6008 C.ar    1  ZINC000458730620    0.1900
     18 F18         3.9924    1.3402   51.4703 F       1  ZINC000458730620   -0.1200
     19 C19         2.4647    2.8776   50.5135 C.ar    1  ZINC000458730620   -0.2100
     20 C20         1.4433    3.1439   49.6183 C.ar    1  ZINC000458730620    0.2200
     21 F21         0.9283    4.3898   49.5320 F       1  ZINC000458730620   -0.1100
     22 C22        -2.5454    3.8435   56.0077 C.3     1  ZINC000458730620   -0.1100
     23 C23        -2.5660    3.5652   57.5200 C.3     1  ZINC000458730620   -0.1400
     24 C24        -1.2451    2.8040   57.3183 C.3     1  ZINC000458730620   -0.1400
     25 C25        -1.6917    2.5725   55.8651 C.3     1  ZINC000458730620   -0.1400
     26 H26        -4.5962    5.6824   55.9738 H       1  ZINC000458730620    0.0600
     27 H27        -3.7331    5.6704   54.4172 H       1  ZINC000458730620    0.0500
     28 H28        -5.4022    5.0599   54.5140 H       1  ZINC000458730620    0.0800
     29 H29        -5.8667    2.9426   55.8201 H       1  ZINC000458730620    0.0800
     30 H30        -4.5090    2.0204   56.5089 H       1  ZINC000458730620    0.0500
     31 H31        -4.9735    3.5850   57.2194 H       1  ZINC000458730620    0.0600
     32 H32        -4.3573    2.1917   53.9554 H       1  ZINC000458730620    0.3900
     33 H33        -3.3736    1.8813   51.8612 H       1  ZINC000458730620    0.4000
     34 H34        -1.9147    4.1706   50.8594 H       1  ZINC000458730620    0.0800
     35 H35        -0.8597    2.7977   51.2723 H       1  ZINC000458730620    0.0800
     36 H36        -1.8547    1.3901   49.6495 H       1  ZINC000458730620    0.0900
     37 H37        -3.3032    2.4158   49.5167 H       1  ZINC000458730620    0.0700
     38 H38        -1.9080    4.0460   48.3219 H       1  ZINC000458730620    0.4300
     39 H39         1.0803    0.0667   48.2800 H       1  ZINC000458730620    0.1700
     40 H40         2.9033   -0.4068   49.8649 H       1  ZINC000458730620    0.1600
     41 H41         2.8532    3.6665   51.1405 H       1  ZINC000458730620    0.1600
     42 H42        -2.0163    4.7574   55.7378 H       1  ZINC000458730620    0.1100
     43 H43        -2.4640    4.4624   58.1305 H       1  ZINC000458730620    0.0700
     44 H44        -3.3929    2.9289   57.8356 H       1  ZINC000458730620    0.0800
     45 H45        -0.3601    3.4339   57.4080 H       1  ZINC000458730620    0.0800
     46 H46        -1.1751    1.8879   57.9048 H       1  ZINC000458730620    0.0700
     47 H47        -2.2795    1.6647   55.7283 H       1  ZINC000458730620    0.0800
     48 H48        -0.8839    2.6682   55.1396 H       1  ZINC000458730620    0.0700
@<TRIPOS>BOND
     1     1     2    1
     2     1    26    1
     3     1    27    1
     4     1    28    1
     5     2     3    1
     6     2     4    1
     7     2    22    1
     8     3    29    1
     9     3    30    1
    10     3    31    1
    11     4     5   am
    12     4    32    1
    13     5     6    2
    14     5     7   am
    15     7     8    1
    16     7    33    1
    17     8     9    1
    18     8    34    1
    19     8    35    1
    20     9    10    1
    21     9    36    1
    22     9    37    1
    23    10    11   am
    24    10    38    1
    25    11    12    2
    26    11    13    2
    27    11    14    1
    28    14    20   ar
    29    14    15   ar
    30    15    16   ar
    31    15    39    1
    32    16    17   ar
    33    16    40    1
    34    17    18    1
    35    17    19   ar
    36    19    20   ar
    37    19    41    1
    38    20    21    1
    39    22    25    1
    40    22    23    1
    41    22    42    1
    42    23    24    1
    43    23    43    1
    44    23    44    1
    45    24    25    1
    46    24    45    1
    47    24    46    1
    48    25    47    1
    49    25    48    1
@<TRIPOS>SUBSTRUCTURE
     1 ZINC000458730620        1 TEMP              0 ****  ****    0 ROOT


##########                                Name:    ZINC001023148918
##########                DOCK_Rotatable_Bonds:                   6
##########                         Heavy_Atoms:                  25
##########                    Molecular_Weight:             348.402
##########                DOCK_Rotatable_Bonds:                   6
##########                       Formal_Charge:           0.0199999
##########                     HBond_Acceptors:                   8
##########                        HBond_Donors:                   2
##########                         Heavy_Atoms:                  25
##########                          Grid_Score:          -30.184084
##########                     Grid_vdw_energy:          -29.560812
##########                      Grid_es_energy:           -0.623272
##########           Internal_energy_repulsive:           12.259466

@<TRIPOS>MOLECULE
ZINC001023148918
 49 52 1 0 0
SMALL
USER_CHARGES


@<TRIPOS>ATOM
      1 C1          0.2763    2.9059   47.0148 C.3     1  ZINC001023148918   -0.0700
      2 C2         -0.2564    3.0412   48.4181 C.2     1  ZINC001023148918    0.0200
      3 N3          0.4198    3.4448   49.4632 N.2     1  ZINC001023148918   -0.2700
      4 N4         -0.3191    3.4501   50.5138 N.pl3   1  ZINC001023148918   -0.2500
      5 C5          0.1209    3.8470   51.8535 C.3     1  ZINC001023148918    0.0800
      6 C6         -1.5780    3.0292   50.1911 C.2     1  ZINC001023148918   -0.0400
      7 C7         -2.7244    2.8921   51.1035 C.2     1  ZINC001023148918    0.6000
      8 O8         -2.6173    3.2234   52.2689 O.2     1  ZINC001023148918   -0.5300
      9 N9         -3.8933    2.3995   50.6477 N.am    1  ZINC001023148918   -0.7000
     10 C10        -5.0346    2.2631   51.5561 C.3     1  ZINC001023148918    0.1500
     11 H11        -4.6989    2.1049   52.5809 H       1  ZINC001023148918    0.1200
     12 C12        -5.9758    1.1212   51.0977 C.3     1  ZINC001023148918    0.1000
     13 N13        -7.2937    1.4704   51.6584 N.am    1  ZINC001023148918   -0.6200
     14 C14        -8.2899    0.6020   51.9229 C.2     1  ZINC001023148918    0.5400
     15 O15        -8.1398   -0.5801   51.6969 O.2     1  ZINC001023148918   -0.5200
     16 C16        -9.5901    1.0999   52.4995 C.3     1  ZINC001023148918   -0.1400
     17 H17        -9.8313    2.0882   52.1080 H       1  ZINC001023148918    0.1100
     18 C18        -9.5312    1.1222   54.0482 C.3     1  ZINC001023148918   -0.1400
     19 C19       -10.6580    0.1241   54.4507 C.3     1  ZINC001023148918    0.0600
     20 H20       -10.5679   -0.3047   55.4489 H       1  ZINC001023148918    0.1300
     21 C21       -11.9938    0.8730   54.1633 C.3     1  ZINC001023148918   -0.1500
     22 C22       -12.0653    0.8650   52.6150 C.3     1  ZINC001023148918   -0.1500
     23 C23       -10.7441    0.0941   52.2084 C.3     1  ZINC001023148918    0.0900
     24 H24       -10.7524   -0.3559   51.2157 H       1  ZINC001023148918    0.1400
     25 O25       -10.6023   -0.8320   53.3415 O.3     1  ZINC001023148918   -0.3600
     26 C26        -7.3411    2.9228   51.8818 C.3     1  ZINC001023148918    0.0700
     27 C27        -5.9710    3.4966   51.4617 C.3     1  ZINC001023148918    0.0900
     28 H28        -6.0081    3.8745   50.4399 H       1  ZINC001023148918    0.0800
     29 O29        -5.5548    4.5236   52.3638 O.3     1  ZINC001023148918   -0.5500
     30 C30        -1.5610    2.7638   48.8329 C.2     1  ZINC001023148918   -0.1800
     31 H31         0.1357    3.8455   46.4807 H       1  ZINC001023148918    0.0800
     32 H32         1.3385    2.6639   47.0512 H       1  ZINC001023148918    0.0700
     33 H33        -0.2602    2.1102   46.4978 H       1  ZINC001023148918    0.0800
     34 H34         0.0211    4.9269   51.9637 H       1  ZINC001023148918    0.0900
     35 H35        -0.4950    3.3472   52.6012 H       1  ZINC001023148918    0.1100
     36 H36         1.1638    3.5625   51.9926 H       1  ZINC001023148918    0.0900
     37 H37        -3.9788    2.1353   49.7184 H       1  ZINC001023148918    0.4100
     38 H38        -6.0243    1.0834   50.0094 H       1  ZINC001023148918    0.0800
     39 H39        -5.6350    0.1656   51.4964 H       1  ZINC001023148918    0.0900
     40 H40        -8.5614    0.7732   54.4029 H       1  ZINC001023148918    0.0800
     41 H41        -9.7461    2.1209   54.4285 H       1  ZINC001023148918    0.0900
     42 H42       -12.8387    0.3338   54.5917 H       1  ZINC001023148918    0.0800
     43 H43       -11.9534    1.8940   54.5428 H       1  ZINC001023148918    0.0800
     44 H44       -12.9459    0.3220   52.2718 H       1  ZINC001023148918    0.0800
     45 H45       -12.0605    1.8821   52.2230 H       1  ZINC001023148918    0.0800
     46 H46        -8.1308    3.3657   51.2748 H       1  ZINC001023148918    0.0800
     47 H47        -7.5213    3.1299   52.9366 H       1  ZINC001023148918    0.0900
     48 H48        -5.4618    4.2284   53.2800 H       1  ZINC001023148918    0.3900
     49 H49        -2.3804    2.4111   48.2243 H       1  ZINC001023148918    0.1600
@<TRIPOS>BOND
     1     1     2    1
     2     1    31    1
     3     1    32    1
     4     1    33    1
     5     2    30    1
     6     2     3    2
     7     3     4    1
     8     4     5    1
     9     4     6    1
    10     5    34    1
    11     5    35    1
    12     5    36    1
    13     6     7    1
    14     6    30    2
    15     7     8    2
    16     7     9   am
    17     9    10    1
    18     9    37    1
    19    10    11    1
    20    10    27    1
    21    10    12    1
    22    12    13    1
    23    12    38    1
    24    12    39    1
    25    13    14   am
    26    13    26    1
    27    14    15    2
    28    14    16    1
    29    16    17    1
    30    16    23    1
    31    16    18    1
    32    18    19    1
    33    18    40    1
    34    18    41    1
    35    19    20    1
    36    19    25    1
    37    19    21    1
    38    21    22    1
    39    21    42    1
    40    21    43    1
    41    22    23    1
    42    22    44    1
    43    22    45    1
    44    23    24    1
    45    23    25    1
    46    26    27    1
    47    26    46    1
    48    26    47    1
    49    27    28    1
    50    27    29    1
    51    29    48    1
    52    30    49    1
@<TRIPOS>SUBSTRUCTURE
     1 ZINC001023148918        1 TEMP              0 ****  ****    0 ROOT


##########                                Name:    ZINC000851838607
##########                DOCK_Rotatable_Bonds:                  12
##########                         Heavy_Atoms:                  23
##########                    Molecular_Weight:             352.495
##########                DOCK_Rotatable_Bonds:                  12
##########                       Formal_Charge:          0.00999896
##########                     HBond_Acceptors:                   8
##########                        HBond_Donors:                   2
##########                         Heavy_Atoms:                  23
##########                          Grid_Score:          -30.172287
##########                     Grid_vdw_energy:          -29.844732
##########                      Grid_es_energy:           -0.327555
##########           Internal_energy_repulsive:           22.295290

@<TRIPOS>MOLECULE
ZINC000851838607
 55 54 1 0 0
SMALL
USER_CHARGES


@<TRIPOS>ATOM
      1 C1         -6.5026    0.0898   51.0383 C.3     1  ZINC000851838607    0.0300
      2 O2         -7.3281   -0.0130   52.2003 O.3     1  ZINC000851838607   -0.3800
      3 C3         -8.7244    0.1386   51.9366 C.3     1  ZINC000851838607    0.0800
      4 C4         -9.5059    0.0273   53.2472 C.3     1  ZINC000851838607   -0.6000
      5 H5         -9.3027   -0.9382   53.7105 H       1  ZINC000851838607    0.1400
      6 C6         -9.0747    1.1485   54.1950 C.3     1  ZINC000851838607   -0.1400
      7 S7        -11.2817    0.1728   52.9066 S.o2    1  ZINC000851838607    2.6200
      8 O8        -11.8038    1.3626   53.4819 O.2     1  ZINC000851838607   -0.9400
      9 O9        -11.5602   -0.1715   51.5564 O.2     1  ZINC000851838607   -0.9500
     10 N10       -11.9730   -1.0456   53.7898 N.am    1  ZINC000851838607   -1.1200
     11 C11       -11.8139   -1.0760   55.2458 C.3     1  ZINC000851838607    0.1100
     12 C12       -13.0029   -1.8061   55.8736 C.3     1  ZINC000851838607   -0.1400
     13 C13       -12.7826   -1.9367   57.3819 C.3     1  ZINC000851838607    0.1700
     14 H14       -12.3589   -2.9161   57.6038 H       1  ZINC000851838607    0.1000
     15 N15       -11.8600   -0.8919   57.8330 N.am    1  ZINC000851838607   -0.7100
     16 C16       -10.5971   -1.2115   58.1786 C.2     1  ZINC000851838607    0.6500
     17 O17       -10.2233   -2.3660   58.1148 O.2     1  ZINC000851838607   -0.5600
     18 O18        -9.7496   -0.2516   58.5946 O.3     1  ZINC000851838607   -0.3700
     19 C19        -9.3465   -0.2874   59.9891 C.3     1  ZINC000851838607    0.1400
     20 C20        -8.2201   -1.3072   60.1684 C.3     1  ZINC000851838607   -0.1800
     21 C21        -8.8529    1.0974   60.4129 C.3     1  ZINC000851838607   -0.1400
     22 C22       -10.5416   -0.6899   60.8554 C.3     1  ZINC000851838607   -0.1800
     23 C23       -14.1207   -1.7835   58.1079 C.3     1  ZINC000851838607   -0.1100
     24 C24       -15.0630   -2.9119   57.6839 C.3     1  ZINC000851838607   -0.1500
     25 C25       -13.8916   -1.8511   59.6192 C.3     1  ZINC000851838607   -0.1400
     26 H26        -6.7813   -0.6858   50.3249 H       1  ZINC000851838607    0.0400
     27 H27        -6.6391    1.0698   50.5812 H       1  ZINC000851838607    0.0500
     28 H28        -5.4579   -0.0364   51.3225 H       1  ZINC000851838607    0.0900
     29 H29        -8.9053    1.1152   51.4875 H       1  ZINC000851838607    0.0700
     30 H30        -9.0516   -0.6429   51.2509 H       1  ZINC000851838607    0.0600
     31 H31        -9.6943    1.1247   55.0914 H       1  ZINC000851838607    0.0700
     32 H32        -8.0298    1.0086   54.4716 H       1  ZINC000851838607    0.0900
     33 H33        -9.1931    2.1107   53.6969 H       1  ZINC000851838607    0.0700
     34 H34       -12.4833   -1.7390   53.3431 H       1  ZINC000851838607    0.4200
     35 H35       -10.8915   -1.5984   55.4997 H       1  ZINC000851838607    0.0700
     36 H36       -11.7708   -0.0561   55.6280 H       1  ZINC000851838607    0.0800
     37 H37       -13.9159   -1.2406   55.6873 H       1  ZINC000851838607    0.0800
     38 H38       -13.0939   -2.7987   55.4324 H       1  ZINC000851838607    0.1000
     39 H39       -12.1579    0.0298   57.8827 H       1  ZINC000851838607    0.4100
     40 H40        -7.3686   -1.0205   59.5513 H       1  ZINC000851838607    0.0600
     41 H41        -7.9176   -1.3340   61.2152 H       1  ZINC000851838607    0.0700
     42 H42        -8.5718   -2.2937   59.8665 H       1  ZINC000851838607    0.0900
     43 H43        -9.6553    1.8240   60.2851 H       1  ZINC000851838607    0.0700
     44 H44        -8.5502    1.0706   61.4597 H       1  ZINC000851838607    0.0800
     45 H45        -8.0014    1.3842   59.7958 H       1  ZINC000851838607    0.0700
     46 H46       -10.8934   -1.6765   60.5535 H       1  ZINC000851838607    0.0900
     47 H47       -10.2391   -0.7167   61.9022 H       1  ZINC000851838607    0.0700
     48 H48       -11.3441    0.0367   60.7276 H       1  ZINC000851838607    0.0600
     49 H49       -14.5657   -0.8224   57.8505 H       1  ZINC000851838607    0.0700
     50 H50       -14.6179   -3.8729   57.9413 H       1  ZINC000851838607    0.0600
     51 H51       -16.0162   -2.8027   58.2013 H       1  ZINC000851838607    0.0600
     52 H52       -15.2262   -2.8637   56.6073 H       1  ZINC000851838607    0.0600
     53 H53       -13.2202   -1.0473   59.9212 H       1  ZINC000851838607    0.0500
     54 H54       -14.8448   -1.7420   60.1364 H       1  ZINC000851838607    0.0500
     55 H55       -13.4465   -2.8123   59.8766 H       1  ZINC000851838607    0.0700
@<TRIPOS>BOND
     1     1     2    1
     2     1    26    1
     3     1    27    1
     4     1    28    1
     5     2     3    1
     6     3     4    1
     7     3    29    1
     8     3    30    1
     9     4     5    1
    10     4     6    1
    11     4     7    1
    12     6    31    1
    13     6    32    1
    14     6    33    1
    15     7     8    2
    16     7     9    2
    17     7    10   am
    18    10    11    1
    19    10    34    1
    20    11    12    1
    21    11    35    1
    22    11    36    1
    23    12    13    1
    24    12    37    1
    25    12    38    1
    26    13    14    1
    27    13    15    1
    28    13    23    1
    29    15    16   am
    30    15    39    1
    31    16    17    2
    32    16    18    1
    33    18    19    1
    34    19    20    1
    35    19    21    1
    36    19    22    1
    37    20    40    1
    38    20    41    1
    39    20    42    1
    40    21    43    1
    41    21    44    1
    42    21    45    1
    43    22    46    1
    44    22    47    1
    45    22    48    1
    46    23    24    1
    47    23    25    1
    48    23    49    1
    49    24    50    1
    50    24    51    1
    51    24    52    1
    52    25    53    1
    53    25    54    1
    54    25    55    1
@<TRIPOS>SUBSTRUCTURE
     1 ZINC000851838607        1 TEMP              0 ****  ****    0 ROOT


##########                                Name:    ZINC000914736341
##########                DOCK_Rotatable_Bonds:                   7
##########                         Heavy_Atoms:                  27
##########                    Molecular_Weight:             384.905
##########                DOCK_Rotatable_Bonds:                   7
##########                       Formal_Charge:                0.02
##########                     HBond_Acceptors:                   5
##########                        HBond_Donors:                   1
##########                         Heavy_Atoms:                  27
##########                          Grid_Score:          -30.171316
##########                     Grid_vdw_energy:          -29.509430
##########                      Grid_es_energy:           -0.661886
##########           Internal_energy_repulsive:           28.386372

@<TRIPOS>MOLECULE
ZINC000914736341
 52 54 1 0 0
SMALL
USER_CHARGES


@<TRIPOS>ATOM
      1 C1         -2.9831    5.3384   52.0898 C.3     1  ZINC000914736341   -0.1400
      2 C2         -3.3383    3.9186   52.5363 C.3     1  ZINC000914736341   -0.0300
      3 C3         -4.8114    3.8665   52.9462 C.3     1  ZINC000914736341   -0.1400
      4 C4         -3.0956    2.9452   51.3812 C.3     1  ZINC000914736341    0.1300
      5 N5         -1.6872    3.0023   50.9821 N.am    1  ZINC000914736341   -0.7200
      6 C6         -1.3497    2.8847   49.6826 C.2     1  ZINC000914736341    0.5300
      7 O7         -2.2119    2.7302   48.8437 O.2     1  ZINC000914736341   -0.5300
      8 C8          0.0990    2.9453   49.2718 C.3     1  ZINC000914736341   -0.1200
      9 H9          0.7072    3.3909   50.0590 H       1  ZINC000914736341    0.1200
     10 C10         0.2652    3.7154   47.9413 C.3     1  ZINC000914736341   -0.1400
     11 C11         1.3656    2.9715   47.2171 C.2     1  ZINC000914736341    0.5200
     12 O12         1.9912    3.4041   46.2724 O.2     1  ZINC000914736341   -0.5200
     13 N13         1.5494    1.7617   47.7734 N.am    1  ZINC000914736341   -0.6100
     14 C14         2.5447    0.7866   47.3210 C.3     1  ZINC000914736341    0.1600
     15 C15         2.9625   -0.0800   48.4810 C.ar    1  ZINC000914736341   -0.1000
     16 C16         2.3428   -1.2969   48.6930 C.ar    1  ZINC000914736341   -0.0800
     17 C17         2.7259   -2.0920   49.7571 C.ar    1  ZINC000914736341   -0.1100
     18 C18         3.7285   -1.6702   50.6099 C.ar    1  ZINC000914736341   -0.1000
     19 C19         4.3492   -0.4532   50.3989 C.ar    1  ZINC000914736341   -0.1100
     20 C20         3.9706    0.3400   49.3307 C.ar    1  ZINC000914736341   -0.0300
     21 Cl21        4.7495    1.8686   49.0651 Cl      1  ZINC000914736341   -0.0600
     22 C22         0.6254    1.5432   48.8932 C.3     1  ZINC000914736341    0.1000
     23 C23        -2.4762    3.5306   53.7098 C.ar    1  ZINC000914736341   -0.0700
     24 C24        -3.0443    2.9230   54.8138 C.ar    1  ZINC000914736341   -0.1200
     25 C25        -2.2535    2.5670   55.8903 C.ar    1  ZINC000914736341   -0.1200
     26 C26        -0.8945    2.8185   55.8626 C.ar    1  ZINC000914736341   -0.1200
     27 C27        -0.3262    3.4252   54.7582 C.ar    1  ZINC000914736341   -0.1200
     28 C28        -1.1164    3.7773   53.6799 C.ar    1  ZINC000914736341   -0.1100
     29 H29        -3.1561    6.0319   52.9127 H       1  ZINC000914736341    0.0600
     30 H30        -1.9337    5.3755   51.7978 H       1  ZINC000914736341    0.0600
     31 H31        -3.6066    5.6190   51.2410 H       1  ZINC000914736341    0.0600
     32 H32        -5.4350    4.1471   52.0973 H       1  ZINC000914736341    0.0600
     33 H33        -5.0646    2.8550   53.2641 H       1  ZINC000914736341    0.0600
     34 H34        -4.9844    4.5601   53.7691 H       1  ZINC000914736341    0.0600
     35 H35        -3.3418    1.9327   51.7013 H       1  ZINC000914736341    0.0700
     36 H36        -3.7245    3.2216   50.5349 H       1  ZINC000914736341    0.0700
     37 H37        -0.9975    3.1247   51.6532 H       1  ZINC000914736341    0.4000
     38 H38        -0.6593    3.6848   47.3647 H       1  ZINC000914736341    0.1100
     39 H39         0.5631    4.7464   48.1319 H       1  ZINC000914736341    0.1100
     40 H40         2.1125    0.1626   46.5385 H       1  ZINC000914736341    0.1000
     41 H41         3.4152    1.3116   46.9277 H       1  ZINC000914736341    0.1000
     42 H42         1.5588   -1.6266   48.0274 H       1  ZINC000914736341    0.1400
     43 H43         2.2414   -3.0429   49.9224 H       1  ZINC000914736341    0.1300
     44 H44         4.0270   -2.2914   51.4415 H       1  ZINC000914736341    0.1300
     45 H45         5.1327   -0.1237   51.0653 H       1  ZINC000914736341    0.1400
     46 H46         1.1531    1.0970   49.7361 H       1  ZINC000914736341    0.1000
     47 H47        -0.1997    0.9026   48.5819 H       1  ZINC000914736341    0.0900
     48 H48        -4.1061    2.7266   54.8354 H       1  ZINC000914736341    0.1300
     49 H49        -2.6975    2.0929   56.7531 H       1  ZINC000914736341    0.1200
     50 H50        -0.2767    2.5410   56.7039 H       1  ZINC000914736341    0.1200
     51 H51         0.7355    3.6219   54.7367 H       1  ZINC000914736341    0.1200
     52 H52        -0.6723    4.2513   52.8170 H       1  ZINC000914736341    0.1200
@<TRIPOS>BOND
     1     1     2    1
     2     1    29    1
     3     1    30    1
     4     1    31    1
     5     2     3    1
     6     2     4    1
     7     2    23    1
     8     3    32    1
     9     3    33    1
    10     3    34    1
    11     4     5    1
    12     4    35    1
    13     4    36    1
    14     5     6   am
    15     5    37    1
    16     6     7    2
    17     6     8    1
    18     8     9    1
    19     8    22    1
    20     8    10    1
    21    10    11    1
    22    10    38    1
    23    10    39    1
    24    11    12    2
    25    11    13   am
    26    13    14    1
    27    13    22    1
    28    14    15    1
    29    14    40    1
    30    14    41    1
    31    15    20   ar
    32    15    16   ar
    33    16    17   ar
    34    16    42    1
    35    17    18   ar
    36    17    43    1
    37    18    19   ar
    38    18    44    1
    39    19    20   ar
    40    19    45    1
    41    20    21    1
    42    22    46    1
    43    22    47    1
    44    23    28   ar
    45    23    24   ar
    46    24    25   ar
    47    24    48    1
    48    25    26   ar
    49    25    49    1
    50    26    27   ar
    51    26    50    1
    52    27    28   ar
    53    27    51    1
    54    28    52    1
@<TRIPOS>SUBSTRUCTURE
     1 ZINC000914736341        1 TEMP              0 ****  ****    0 ROOT


##########                                Name:    ZINC001289445798
##########                DOCK_Rotatable_Bonds:                  10
##########                         Heavy_Atoms:                  25
##########                    Molecular_Weight:             352.434
##########                DOCK_Rotatable_Bonds:                  10
##########                       Formal_Charge:          0.00999932
##########                     HBond_Acceptors:                   8
##########                        HBond_Donors:                   2
##########                         Heavy_Atoms:                  25
##########                          Grid_Score:          -30.162735
##########                     Grid_vdw_energy:          -28.467585
##########                      Grid_es_energy:           -1.695151
##########           Internal_energy_repulsive:           19.665426

@<TRIPOS>MOLECULE
ZINC001289445798
 53 54 1 0 0
SMALL
USER_CHARGES


@<TRIPOS>ATOM
      1 C1         -8.2953    0.9793   62.7412 C.3     1  ZINC001289445798   -0.1500
      2 C2         -8.4723   -0.1575   61.7326 C.3     1  ZINC001289445798    0.0600
      3 O3         -9.2051    0.3188   60.6019 O.3     1  ZINC001289445798   -0.3700
      4 C4         -9.2028   -0.5769   59.4886 C.3     1  ZINC001289445798    0.1100
      5 H5         -8.1870   -0.9276   59.3065 H       1  ZINC001289445798    0.0700
      6 C6         -9.7209    0.1517   58.2469 C.3     1  ZINC001289445798   -0.1400
      7 C7         -8.6106    0.9766   57.6486 C.2     1  ZINC001289445798    0.5400
      8 O8         -7.6735    1.3221   58.3367 O.2     1  ZINC001289445798   -0.5200
      9 N9         -8.6591    1.3304   56.3491 N.am    1  ZINC001289445798   -0.6200
     10 C10        -7.6451    2.1229   55.6383 C.3     1  ZINC001289445798    0.1000
     11 C11        -8.1094    2.2526   54.1724 C.3     1  ZINC001289445798    0.1400
     12 H12        -8.6366    3.1937   54.0166 H       1  ZINC001289445798    0.1200
     13 N13        -6.9717    2.1401   53.2564 N.am    1  ZINC001289445798   -0.7200
     14 C14        -6.1354    3.1838   53.0893 C.2     1  ZINC001289445798    0.6000
     15 O15        -6.3262    4.2195   53.6978 O.2     1  ZINC001289445798   -0.5100
     16 C16        -4.9914    3.0703   52.1705 C.2     1  ZINC001289445798   -0.0500
     17 C17        -4.0335    4.0356   51.9134 C.2     1  ZINC001289445798   -0.1400
     18 C18        -3.1680    3.4588   50.9811 C.2     1  ZINC001289445798    0.0000
     19 N19        -3.6012    2.2509   50.7248 N.2     1  ZINC001289445798   -0.2700
     20 N20        -4.6588    1.9889   51.4050 N.pl3   1  ZINC001289445798   -0.3800
     21 C21        -9.0742    1.0489   54.0058 C.3     1  ZINC001289445798    0.0700
     22 H22        -8.5231    0.1329   53.7931 H       1  ZINC001289445798    0.0900
     23 O23       -10.0447    1.3072   52.9891 O.3     1  ZINC001289445798   -0.3700
     24 C24        -9.9635    0.4226   51.8699 C.3     1  ZINC001289445798    0.0300
     25 C25        -9.7345    0.9812   55.4031 C.3     1  ZINC001289445798    0.0800
     26 C26       -10.1080   -1.7720   59.7934 C.3     1  ZINC001289445798   -0.1100
     27 C27       -11.5723   -1.3529   59.6483 C.3     1  ZINC001289445798   -0.1500
     28 C28        -9.8027   -2.9063   58.8129 C.3     1  ZINC001289445798   -0.1500
     29 H29        -9.2739    1.3330   63.0654 H       1  ZINC001289445798    0.0600
     30 H30        -7.7363    0.6160   63.6036 H       1  ZINC001289445798    0.0700
     31 H31        -7.7495    1.7985   62.2733 H       1  ZINC001289445798    0.0600
     32 H32        -7.4937   -0.5113   61.4083 H       1  ZINC001289445798    0.0500
     33 H33        -9.0181   -0.9767   62.2006 H       1  ZINC001289445798    0.0500
     34 H34       -10.0661   -0.5785   57.5148 H       1  ZINC001289445798    0.1100
     35 H35       -10.5479    0.8042   58.5271 H       1  ZINC001289445798    0.1000
     36 H36        -7.5637    3.1115   56.0902 H       1  ZINC001289445798    0.0800
     37 H37        -6.6819    1.6143   55.6786 H       1  ZINC001289445798    0.0800
     38 H38        -6.8202    1.3146   52.7702 H       1  ZINC001289445798    0.4000
     39 H39        -3.9690    5.0246   52.3425 H       1  ZINC001289445798    0.1700
     40 H40        -2.2963    3.9269   50.5483 H       1  ZINC001289445798    0.1900
     41 H41        -5.1503    1.1532   51.3746 H       1  ZINC001289445798    0.4400
     42 H42       -10.7328    0.6843   51.1434 H       1  ZINC001289445798    0.0900
     43 H43        -8.9809    0.5121   51.4066 H       1  ZINC001289445798    0.0400
     44 H44       -10.1149   -0.6032   52.2058 H       1  ZINC001289445798    0.0500
     45 H45       -10.1051   -0.0249   55.5991 H       1  ZINC001289445798    0.0900
     46 H46       -10.5457    1.7058   55.4748 H       1  ZINC001289445798    0.0900
     47 H47        -9.9273   -2.1143   60.8124 H       1  ZINC001289445798    0.0800
     48 H48       -11.7531   -1.0108   58.6292 H       1  ZINC001289445798    0.0600
     49 H49       -12.2173   -2.2045   59.8654 H       1  ZINC001289445798    0.0600
     50 H50       -11.7899   -0.5449   60.3468 H       1  ZINC001289445798    0.0600
     51 H51        -8.7897   -3.2709   58.9833 H       1  ZINC001289445798    0.0600
     52 H52       -10.5121   -3.7195   58.9657 H       1  ZINC001289445798    0.0600
     53 H53        -9.8885   -2.5364   57.7912 H       1  ZINC001289445798    0.0500
@<TRIPOS>BOND
     1     1     2    1
     2     1    29    1
     3     1    30    1
     4     1    31    1
     5     2     3    1
     6     2    32    1
     7     2    33    1
     8     3     4    1
     9     4     5    1
    10     4     6    1
    11     4    26    1
    12     6     7    1
    13     6    34    1
    14     6    35    1
    15     7     8    2
    16     7     9   am
    17     9    25    1
    18     9    10    1
    19    10    11    1
    20    10    36    1
    21    10    37    1
    22    11    12    1
    23    11    13    1
    24    11    21    1
    25    13    14   am
    26    13    38    1
    27    14    15    2
    28    14    16    1
    29    16    20    1
    30    16    17    2
    31    17    18    1
    32    17    39    1
    33    18    19    2
    34    18    40    1
    35    19    20    1
    36    20    41    1
    37    21    22    1
    38    21    23    1
    39    21    25    1
    40    23    24    1
    41    24    42    1
    42    24    43    1
    43    24    44    1
    44    25    45    1
    45    25    46    1
    46    26    27    1
    47    26    28    1
    48    26    47    1
    49    27    48    1
    50    27    49    1
    51    27    50    1
    52    28    51    1
    53    28    52    1
    54    28    53    1
@<TRIPOS>SUBSTRUCTURE
     1 ZINC001289445798        1 TEMP              0 ****  ****    0 ROOT


##########                                Name:    ZINC000266467123
##########                DOCK_Rotatable_Bonds:                   9
##########                         Heavy_Atoms:                  25
##########                    Molecular_Weight:             337.421
##########                DOCK_Rotatable_Bonds:                   9
##########                       Formal_Charge:                0.02
##########                     HBond_Acceptors:                   5
##########                        HBond_Donors:                   3
##########                         Heavy_Atoms:                  25
##########                          Grid_Score:          -30.150545
##########                     Grid_vdw_energy:          -29.932724
##########                      Grid_es_energy:           -0.217822
##########           Internal_energy_repulsive:           13.148022

@<TRIPOS>MOLECULE
ZINC000266467123
 48 50 1 0 0
SMALL
USER_CHARGES


@<TRIPOS>ATOM
      1 C1        -12.5949    0.1288   53.0910 C.3     1  <0>        -0.1600
      2 C2        -11.2973   -0.5334   53.5586 C.3     1  <0>         0.1500
      3 H3        -11.4022   -1.6169   53.5040 H       1  <0>         0.1200
      4 N4        -11.0188   -0.1389   54.9418 N.am    1  <0>        -0.7300
      5 C5        -10.8318   -1.0815   55.8868 C.2     1  <0>         0.7100
      6 O6        -10.8929   -2.2592   55.5911 O.2     1  <0>        -0.5900
      7 N7        -10.5772   -0.7185   57.1595 N.am    1  <0>        -0.7100
      8 C8        -10.3722   -1.7431   58.1863 C.3     1  <0>         0.1100
      9 H9        -10.4357   -2.7748   57.8404 H       1  <0>         0.1400
     10 C10       -10.8771   -1.4392   59.5983 C.3     1  <0>        -0.1900
     11 C11        -9.3748   -1.4332   59.3044 C.3     1  <0>        -0.1500
     12 H12        -8.7824   -2.2610   59.6943 H       1  <0>         0.1200
     13 C13        -8.6680   -0.0768   59.2654 C.3     1  <0>        -0.0500
     14 C14        -8.7094    0.5508   60.6350 C.ar    1  <0>        -0.0800
     15 C15        -8.7233    1.9270   60.7644 C.ar    1  <0>        -0.1100
     16 C16        -8.7614    2.5026   62.0206 C.ar    1  <0>        -0.1200
     17 C17        -8.7859    1.7022   63.1473 C.ar    1  <0>        -0.1200
     18 C18        -8.7729    0.3260   63.0178 C.ar    1  <0>        -0.1200
     19 C19        -8.7392   -0.2498   61.7615 C.ar    1  <0>        -0.1200
     20 C20       -10.1609   -0.0932   52.6722 C.2     1  <0>         0.5100
     21 O21        -9.9660   -0.6521   51.6136 O.2     1  <0>        -0.5100
     22 N22        -9.3612    0.9216   53.0558 N.am    1  <0>        -0.6700
     23 C23        -8.3060    1.3303   52.2326 C.ar    1  <0>         0.1400
     24 C24        -8.2887    2.6173   51.7111 C.ar    1  <0>        -0.1400
     25 C25        -7.2457    3.0176   50.8989 C.ar    1  <0>        -0.1000
     26 C26        -6.2198    2.1384   50.6046 C.ar    1  <0>        -0.1300
     27 C27        -6.2344    0.8561   51.1220 C.ar    1  <0>        -0.1000
     28 C28        -7.2711    0.4517   51.9402 C.ar    1  <0>        -0.1200
     29 H29       -12.8023   -0.1646   52.0619 H       1  <0>         0.0700
     30 H30       -13.4169   -0.1895   53.7322 H       1  <0>         0.0800
     31 H31       -12.4901    1.2124   53.1457 H       1  <0>         0.0700
     32 H32       -10.9688    0.8007   55.1774 H       1  <0>         0.4100
     33 H33       -10.5296    0.2211   57.3956 H       1  <0>         0.4000
     34 H34       -11.3617   -0.4769   59.7632 H       1  <0>         0.1000
     35 H35       -11.2724   -2.2710   60.1814 H       1  <0>         0.1000
     36 H36        -7.6308   -0.2163   58.9609 H       1  <0>         0.0800
     37 H37        -9.1717    0.5750   58.5517 H       1  <0>         0.0700
     38 H38        -8.7042    2.5524   59.8841 H       1  <0>         0.1200
     39 H39        -8.7715    3.5779   62.1217 H       1  <0>         0.1200
     40 H40        -8.8149    2.1519   64.1287 H       1  <0>         0.1200
     41 H41        -8.7918   -0.2995   63.8981 H       1  <0>         0.1200
     42 H42        -8.7291   -1.3249   61.6603 H       1  <0>         0.1200
     43 H43        -9.5171    1.3686   53.9023 H       1  <0>         0.4100
     44 H44        -9.0900    3.3041   51.9400 H       1  <0>         0.1300
     45 H45        -7.2317    4.0184   50.4930 H       1  <0>         0.1300
     46 H46        -5.4056    2.4537   49.9690 H       1  <0>         0.1200
     47 H47        -5.4321    0.1716   50.8897 H       1  <0>         0.1300
     48 H48        -7.2820   -0.5499   52.3439 H       1  <0>         0.1400
@<TRIPOS>BOND
     1     1     2    1
     2     1    29    1
     3     1    30    1
     4     1    31    1
     5     2     3    1
     6     2     4    1
     7     2    20    1
     8     4     5   am
     9     4    32    1
    10     5     6    2
    11     5     7   am
    12     7     8    1
    13     7    33    1
    14     8     9    1
    15     8    11    1
    16     8    10    1
    17    10    11    1
    18    10    34    1
    19    10    35    1
    20    11    12    1
    21    11    13    1
    22    13    14    1
    23    13    36    1
    24    13    37    1
    25    14    19   ar
    26    14    15   ar
    27    15    16   ar
    28    15    38    1
    29    16    17   ar
    30    16    39    1
    31    17    18   ar
    32    17    40    1
    33    18    19   ar
    34    18    41    1
    35    19    42    1
    36    20    21    2
    37    20    22   am
    38    22    23    1
    39    22    43    1
    40    23    28   ar
    41    23    24   ar
    42    24    25   ar
    43    24    44    1
    44    25    26   ar
    45    25    45    1
    46    26    27   ar
    47    26    46    1
    48    27    28   ar
    49    27    47    1
    50    28    48    1
@<TRIPOS>SUBSTRUCTURE
     1 <0>         1 TEMP              0 ****  ****    0 ROOT


##########                                Name:    ZINC001169875900
##########                DOCK_Rotatable_Bonds:                   9
##########                         Heavy_Atoms:                  24
##########                    Molecular_Weight:             329.399
##########                DOCK_Rotatable_Bonds:                   9
##########                       Formal_Charge:          -0.0500002
##########                     HBond_Acceptors:                   6
##########                        HBond_Donors:                   1
##########                         Heavy_Atoms:                  24
##########                          Grid_Score:          -30.137653
##########                     Grid_vdw_energy:          -30.290014
##########                      Grid_es_energy:            0.152361
##########           Internal_energy_repulsive:            7.089749

@<TRIPOS>MOLECULE
ZINC001169875900
 47 48 1 0 0
SMALL
USER_CHARGES


@<TRIPOS>ATOM
      1 C1          1.5426    4.0001   43.6182 C.3     1  ZINC001169875900   -0.1500
      2 C2          2.7170    3.2059   44.1935 C.3     1  ZINC001169875900   -0.1300
      3 C3          2.5548    3.0820   45.7098 C.3     1  ZINC001169875900    0.0700
      4 O4          1.8200    1.8950   46.0149 O.3     1  ZINC001169875900   -0.3100
      5 C5          0.9653    1.9528   47.0683 C.ar    1  ZINC001169875900    0.2700
      6 N6         -0.2360    2.4803   46.9065 N.ar    1  ZINC001169875900   -0.5000
      7 C7         -1.0974    2.5631   47.9028 C.ar    1  ZINC001169875900    0.0600
      8 C8         -0.7698    2.0891   49.1641 C.ar    1  ZINC001169875900    0.1400
      9 N9         -1.6882    2.1806   50.2166 N.pl3   1  ZINC001169875900   -0.7400
     10 C10        -1.6974    3.3642   51.0797 C.3     1  ZINC001169875900    0.1800
     11 C11        -2.8574    3.2781   52.0380 C.ar    1  ZINC001169875900    0.1000
     12 C12        -4.1524    3.3715   51.5536 C.ar    1  ZINC001169875900   -0.1200
     13 C13        -5.2165    3.2918   52.4385 C.ar    1  ZINC001169875900   -0.0800
     14 C14        -4.9438    3.1202   53.7864 C.ar    1  ZINC001169875900   -0.1000
     15 C15        -3.6168    3.0343   54.2029 C.ar    1  ZINC001169875900    0.0900
     16 C16        -3.3086    2.8510   55.6396 C.2     1  ZINC001169875900    0.5200
     17 O17        -4.1892    2.9613   56.4684 O.2     1  ZINC001169875900   -0.5000
     18 O18        -2.0516    2.5619   56.0271 O.3     1  ZINC001169875900   -0.3300
     19 C19        -1.8110    2.4507   57.4546 C.3     1  ZINC001169875900    0.0600
     20 C20        -1.5660    3.8427   58.0404 C.3     1  ZINC001169875900   -0.1500
     21 N21        -2.6269    3.1101   53.3217 N.ar    1  ZINC001169875900   -0.4200
     22 C22         0.4861    1.5208   49.3706 C.ar    1  ZINC001169875900   -0.1200
     23 C23         1.3615    1.4519   48.3016 C.ar    1  ZINC001169875900   -0.1000
     24 C24         2.7306    0.8462   48.4748 C.3     1  ZINC001169875900   -0.1000
     25 H25         1.5233    4.9945   44.0640 H       1  ZINC001169875900    0.0600
     26 H26         1.6582    4.0884   42.5379 H       1  ZINC001169875900    0.0600
     27 H27         0.6097    3.4831   43.8427 H       1  ZINC001169875900    0.0600
     28 H28         3.6500    3.7230   43.9690 H       1  ZINC001169875900    0.0700
     29 H29         2.7363    2.2115   43.7477 H       1  ZINC001169875900    0.0700
     30 H30         2.0163    3.9503   46.0898 H       1  ZINC001169875900    0.0600
     31 H31         3.5381    3.0310   46.1775 H       1  ZINC001169875900    0.0600
     32 H32        -2.0682    3.0054   47.7341 H       1  ZINC001169875900    0.1500
     33 H33        -2.3185    1.4604   50.3742 H       1  ZINC001169875900    0.4000
     34 H34        -0.7647    3.4114   51.6418 H       1  ZINC001169875900    0.0800
     35 H35        -1.7982    4.2601   50.4670 H       1  ZINC001169875900    0.0800
     36 H36        -4.3309    3.5053   50.4969 H       1  ZINC001169875900    0.1500
     37 H37        -6.2348    3.3615   52.0855 H       1  ZINC001169875900    0.1500
     38 H38        -5.7484    3.0544   54.5039 H       1  ZINC001169875900    0.1500
     39 H39        -2.6800    2.0018   57.9356 H       1  ZINC001169875900    0.0700
     40 H40        -0.9359    1.8244   57.6279 H       1  ZINC001169875900    0.0700
     41 H41        -0.6971    4.2916   57.5594 H       1  ZINC001169875900    0.0700
     42 H42        -2.4412    4.4689   57.8672 H       1  ZINC001169875900    0.0700
     43 H43        -1.3854    3.7592   59.1121 H       1  ZINC001169875900    0.0800
     44 H44         0.7692    1.1435   50.3421 H       1  ZINC001169875900    0.1400
     45 H45         2.6838   -0.2228   48.2674 H       1  ZINC001169875900    0.0700
     46 H46         3.0705    1.0033   49.4984 H       1  ZINC001169875900    0.0700
     47 H47         3.4276    1.3203   47.7837 H       1  ZINC001169875900    0.0700
@<TRIPOS>BOND
     1     1     2    1
     2     1    25    1
     3     1    26    1
     4     1    27    1
     5     2     3    1
     6     2    28    1
     7     2    29    1
     8     3     4    1
     9     3    30    1
    10     3    31    1
    11     4     5    1
    12     5    23   ar
    13     5     6   ar
    14     6     7   ar
    15     7     8   ar
    16     7    32    1
    17     8     9    1
    18     8    22   ar
    19     9    10    1
    20     9    33    1
    21    10    11    1
    22    10    34    1
    23    10    35    1
    24    11    21   ar
    25    11    12   ar
    26    12    13   ar
    27    12    36    1
    28    13    14   ar
    29    13    37    1
    30    14    15   ar
    31    14    38    1
    32    15    16    1
    33    15    21   ar
    34    16    17    2
    35    16    18    1
    36    18    19    1
    37    19    20    1
    38    19    39    1
    39    19    40    1
    40    20    41    1
    41    20    42    1
    42    20    43    1
    43    22    23   ar
    44    22    44    1
    45    23    24    1
    46    24    45    1
    47    24    46    1
    48    24    47    1
@<TRIPOS>SUBSTRUCTURE
     1 ZINC001169875900        1 TEMP              0 ****  ****    0 ROOT


##########                                Name:    ZINC001109082135
##########                DOCK_Rotatable_Bonds:                   9
##########                         Heavy_Atoms:                  27
##########                    Molecular_Weight:             373.455
##########                DOCK_Rotatable_Bonds:                   9
##########                       Formal_Charge:          -0.0100003
##########                     HBond_Acceptors:                   8
##########                        HBond_Donors:                   3
##########                         Heavy_Atoms:                  27
##########                          Grid_Score:          -30.134689
##########                     Grid_vdw_energy:          -28.111406
##########                      Grid_es_energy:           -2.023283
##########           Internal_energy_repulsive:           18.255932

@<TRIPOS>MOLECULE
ZINC001109082135
 54 57 1 0 0
SMALL
USER_CHARGES


@<TRIPOS>ATOM
      1 C1        -15.8034   -5.6280   54.2259 C.3     1  ZINC001109082135   -0.1400
      2 C2        -15.5715   -5.7070   55.7361 C.3     1  ZINC001109082135   -0.1400
      3 C3        -15.8939   -4.3754   56.3641 C.2     1  ZINC001109082135    0.5100
      4 O4        -15.7935   -3.3575   55.7124 O.2     1  ZINC001109082135   -0.5400
      5 N5        -16.2937   -4.3158   57.6497 N.am    1  ZINC001109082135   -0.7200
      6 C6        -16.6054   -3.0213   58.2607 C.3     1  ZINC001109082135    0.1000
      7 C7        -15.3639   -2.4560   58.9009 C.2     1  ZINC001109082135    0.5100
      8 O8        -15.4591   -1.6265   59.7807 O.2     1  ZINC001109082135   -0.5300
      9 N9        -14.1476   -2.8722   58.4959 N.am    1  ZINC001109082135   -0.7100
     10 C10       -12.9406   -2.3239   59.1195 C.3     1  ZINC001109082135    0.1100
     11 H11       -13.0673   -2.2516   60.1997 H       1  ZINC001109082135    0.0900
     12 C12       -11.7058   -3.1910   58.7722 C.3     1  ZINC001109082135   -0.1600
     13 C13       -10.7758   -2.2077   57.9994 C.3     1  ZINC001109082135    0.0600
     14 H14        -9.7215   -2.4829   57.9688 H       1  ZINC001109082135    0.1300
     15 C15       -11.4601   -2.0093   56.6133 C.3     1  ZINC001109082135   -0.1200
     16 C16       -12.7034   -1.1476   56.9434 C.3     1  ZINC001109082135   -0.1100
     17 C17       -12.5943   -0.9307   58.5131 C.3     1  ZINC001109082135    0.0400
     18 H18       -13.1445   -0.0773   58.9097 H       1  ZINC001109082135    0.1200
     19 N19       -11.0961   -0.9067   58.6882 N.3     1  ZINC001109082135   -0.4800
     20 C20       -10.7317   -0.9449   60.1108 C.3     1  ZINC001109082135    0.0800
     21 C21        -9.9459    0.2924   60.4613 C.2     1  ZINC001109082135    0.2000
     22 C22        -9.7295    0.6158   61.7665 C.2     1  ZINC001109082135   -0.2900
     23 C23        -8.9898    1.7801   62.0597 C.2     1  ZINC001109082135    0.5200
     24 O24        -8.7728    2.1058   63.2150 O.2     1  ZINC001109082135   -0.5400
     25 N25        -8.5264    2.5263   61.0343 N.am    1  ZINC001109082135   -0.6300
     26 C26        -8.7751    2.1513   59.7641 C.2     1  ZINC001109082135    0.4300
     27 C27        -8.2507    2.9953   58.6310 C.3     1  ZINC001109082135   -0.1400
     28 C28        -9.2200    3.3369   57.4975 C.3     1  ZINC001109082135   -0.1400
     29 C29        -8.7998    4.4170   58.4965 C.3     1  ZINC001109082135   -0.1400
     30 N30        -9.4560    1.0700   59.4927 N.2     1  ZINC001109082135   -0.5300
     31 H31       -15.1590   -4.8595   53.7990 H       1  ZINC001109082135    0.0600
     32 H32       -15.5703   -6.5911   53.7717 H       1  ZINC001109082135    0.0600
     33 H33       -16.8461   -5.3774   54.0310 H       1  ZINC001109082135    0.0600
     34 H34       -16.2159   -6.4755   56.1630 H       1  ZINC001109082135    0.1000
     35 H35       -14.5288   -5.9576   55.9310 H       1  ZINC001109082135    0.1000
     36 H36       -16.3752   -5.1301   58.1705 H       1  ZINC001109082135    0.4100
     37 H37       -16.9637   -2.3345   57.4938 H       1  ZINC001109082135    0.1000
     38 H38       -17.3771   -3.1538   59.0190 H       1  ZINC001109082135    0.1000
     39 H39       -14.0715   -3.5347   57.7915 H       1  ZINC001109082135    0.4000
     40 H40       -11.2186   -3.5462   59.6803 H       1  ZINC001109082135    0.0800
     41 H41       -11.9917   -4.0288   58.1361 H       1  ZINC001109082135    0.0800
     42 H42       -10.7964   -1.4793   55.9301 H       1  ZINC001109082135    0.0700
     43 H43       -11.7593   -2.9691   56.1921 H       1  ZINC001109082135    0.0700
     44 H44       -12.6561   -0.1906   56.4238 H       1  ZINC001109082135    0.0700
     45 H45       -13.6189   -1.6804   56.6859 H       1  ZINC001109082135    0.0700
     46 H46       -11.6369   -0.9842   60.7168 H       1  ZINC001109082135    0.1000
     47 H47       -10.1245   -1.8286   60.3067 H       1  ZINC001109082135    0.0700
     48 H48       -10.1166   -0.0060   62.5602 H       1  ZINC001109082135    0.1600
     49 H49        -8.0154    3.3315   61.2117 H       1  ZINC001109082135    0.4200
     50 H50        -7.2056    2.8324   58.3680 H       1  ZINC001109082135    0.1300
     51 H51        -8.8125    3.3988   56.4884 H       1  ZINC001109082135    0.1100
     52 H52       -10.2367    2.9512   57.5713 H       1  ZINC001109082135    0.1100
     53 H53        -9.5402    4.7419   59.2275 H       1  ZINC001109082135    0.1100
     54 H54        -8.1160    5.1893   58.1445 H       1  ZINC001109082135    0.1100
@<TRIPOS>BOND
     1     1     2    1
     2     1    31    1
     3     1    32    1
     4     1    33    1
     5     2     3    1
     6     2    34    1
     7     2    35    1
     8     3     4    2
     9     3     5   am
    10     5     6    1
    11     5    36    1
    12     6     7    1
    13     6    37    1
    14     6    38    1
    15     7     8    2
    16     7     9   am
    17     9    10    1
    18     9    39    1
    19    10    11    1
    20    10    17    1
    21    10    12    1
    22    12    13    1
    23    12    40    1
    24    12    41    1
    25    13    14    1
    26    13    19    1
    27    13    15    1
    28    15    16    1
    29    15    42    1
    30    15    43    1
    31    16    17    1
    32    16    44    1
    33    16    45    1
    34    17    18    1
    35    17    19    1
    36    19    20    1
    37    20    21    1
    38    20    46    1
    39    20    47    1
    40    21    30    1
    41    21    22    2
    42    22    23    1
    43    22    48    1
    44    23    24    2
    45    23    25   am
    46    25    26    1
    47    25    49    1
    48    26    27    1
    49    26    30    2
    50    27    29    1
    51    27    28    1
    52    27    50    1
    53    28    29    1
    54    28    51    1
    55    28    52    1
    56    29    53    1
    57    29    54    1
@<TRIPOS>SUBSTRUCTURE
     1 ZINC001109082135        1 TEMP              0 ****  ****    0 ROOT


##########                                Name:    ZINC000548281822
##########                DOCK_Rotatable_Bonds:                   6
##########                         Heavy_Atoms:                  24
##########                    Molecular_Weight:             332.406
##########                DOCK_Rotatable_Bonds:                   6
##########                       Formal_Charge:        -5.58794e-08
##########                     HBond_Acceptors:                   8
##########                        HBond_Donors:                   2
##########                         Heavy_Atoms:                  24
##########                          Grid_Score:          -30.111219
##########                     Grid_vdw_energy:          -29.697216
##########                      Grid_es_energy:           -0.414003
##########           Internal_energy_repulsive:            7.127830

@<TRIPOS>MOLECULE
ZINC000548281822
 48 50 1 0 0
SMALL
USER_CHARGES


@<TRIPOS>ATOM
      1 C1         -0.2013    4.5806   51.1240 C.3     1  ZINC000548281822   -0.1700
      2 C2         -1.0556    3.3118   51.0852 C.3     1  ZINC000548281822    0.2600
      3 H3         -1.0721    2.8546   52.0746 H       1  ZINC000548281822    0.1400
      4 N4         -2.4217    3.6551   50.6829 N.am    1  ZINC000548281822   -0.7400
      5 C5         -3.4715    3.1100   51.3289 C.2     1  ZINC000548281822    0.7100
      6 O6         -3.2848    2.3322   52.2446 O.2     1  ZINC000548281822   -0.5700
      7 N7         -4.7284    3.4270   50.9599 N.am    1  ZINC000548281822   -0.7400
      8 C8         -5.8695    2.8359   51.6632 C.3     1  ZINC000548281822    0.1600
      9 H9         -5.6593    2.7997   52.7321 H       1  ZINC000548281822    0.1000
     10 C10        -7.1189    3.6865   51.4163 C.3     1  ZINC000548281822   -0.1400
     11 C11        -8.2516    3.2096   52.3319 C.3     1  ZINC000548281822    0.1100
     12 N12        -8.3856    1.7570   52.1997 N.pl3   1  ZINC000548281822   -0.4600
     13 C13        -9.4419    0.9788   52.5693 C.2     1  ZINC000548281822   -0.0500
     14 C14        -9.1161   -0.2913   52.2544 C.2     1  ZINC000548281822   -0.0300
     15 N15        -7.8901   -0.2833   51.7065 N.2     1  ZINC000548281822   -0.4900
     16 C16        -7.4454    0.9387   51.6704 C.2     1  ZINC000548281822    0.2100
     17 C17        -6.1130    1.4144   51.1405 C.3     1  ZINC000548281822   -0.0500
     18 C18        -0.4686    2.3411   50.0931 C.2     1  ZINC000548281822    0.1700
     19 N19         0.8045    2.0859   49.9097 N.2     1  ZINC000548281822   -0.4600
     20 C20         0.8516    1.1637   48.9319 C.2     1  ZINC000548281822    0.1900
     21 C21         2.0955    0.5391   48.3541 C.3     1  ZINC000548281822    0.0200
     22 C22         3.2034    1.5911   48.2721 C.3     1  ZINC000548281822   -0.1400
     23 C23         2.5517   -0.6131   49.2515 C.3     1  ZINC000548281822   -0.1400
     24 C24         1.7942    0.0053   46.9523 C.3     1  ZINC000548281822   -0.1400
     25 N25        -0.3724    0.9097   48.5770 N.2     1  ZINC000548281822   -0.3700
     26 O26        -1.1465    1.5716   49.2361 O.3     1  ZINC000548281822    0.0800
     27 H27        -0.1847    5.0377   50.1346 H       1  ZINC000548281822    0.0700
     28 H28        -0.6258    5.2825   51.8416 H       1  ZINC000548281822    0.0900
     29 H29         0.8152    4.3251   51.4233 H       1  ZINC000548281822    0.0800
     30 H30        -2.5708    4.2747   49.9516 H       1  ZINC000548281822    0.4000
     31 H31        -4.8774    4.0466   50.2285 H       1  ZINC000548281822    0.4000
     32 H32        -6.8949    4.7316   51.6297 H       1  ZINC000548281822    0.1000
     33 H33        -7.4267    3.5863   50.3754 H       1  ZINC000548281822    0.0800
     34 H34        -8.0165    3.4623   53.3658 H       1  ZINC000548281822    0.0900
     35 H35        -9.1851    3.6907   52.0393 H       1  ZINC000548281822    0.1000
     36 H36       -10.3612    1.3143   53.0263 H       1  ZINC000548281822    0.1800
     37 H37        -9.7332   -1.1629   52.4153 H       1  ZINC000548281822    0.1700
     38 H38        -6.1323    1.4220   50.0507 H       1  ZINC000548281822    0.0900
     39 H39        -5.3207    0.7527   51.4903 H       1  ZINC000548281822    0.1000
     40 H40         3.4180    1.9715   49.2708 H       1  ZINC000548281822    0.0600
     41 H41         4.1031    1.1395   47.8541 H       1  ZINC000548281822    0.0700
     42 H42         2.8783    2.4120   47.6327 H       1  ZINC000548281822    0.0700
     43 H43         1.7624   -1.3625   49.3099 H       1  ZINC000548281822    0.0600
     44 H44         3.4514   -1.0647   48.8336 H       1  ZINC000548281822    0.0700
     45 H45         2.7663   -0.2328   50.2501 H       1  ZINC000548281822    0.0600
     46 H46         1.4692    0.8261   46.3129 H       1  ZINC000548281822    0.0700
     47 H47         2.6939   -0.4463   46.5344 H       1  ZINC000548281822    0.0700
     48 H48         1.0050   -0.7442   47.0107 H       1  ZINC000548281822    0.0600
@<TRIPOS>BOND
     1     1     2    1
     2     1    27    1
     3     1    28    1
     4     1    29    1
     5     2     3    1
     6     2     4    1
     7     2    18    1
     8     4     5   am
     9     4    30    1
    10     5     6    2
    11     5     7   am
    12     7     8    1
    13     7    31    1
    14     8     9    1
    15     8    17    1
    16     8    10    1
    17    10    11    1
    18    10    32    1
    19    10    33    1
    20    11    12    1
    21    11    34    1
    22    11    35    1
    23    12    16    1
    24    12    13    1
    25    13    14    2
    26    13    36    1
    27    14    15    1
    28    14    37    1
    29    15    16    2
    30    16    17    1
    31    17    38    1
    32    17    39    1
    33    18    26    1
    34    18    19    2
    35    19    20    1
    36    20    21    1
    37    20    25    2
    38    21    22    1
    39    21    23    1
    40    21    24    1
    41    22    40    1
    42    22    41    1
    43    22    42    1
    44    23    43    1
    45    23    44    1
    46    23    45    1
    47    24    46    1
    48    24    47    1
    49    24    48    1
    50    25    26    1
@<TRIPOS>SUBSTRUCTURE
     1 ZINC000548281822        1 TEMP              0 ****  ****    0 ROOT


##########                                Name:    ZINC000185180600
##########                DOCK_Rotatable_Bonds:                   7
##########                         Heavy_Atoms:                  26
##########                    Molecular_Weight:             395.953
##########                DOCK_Rotatable_Bonds:                   7
##########                       Formal_Charge:          0.00999977
##########                     HBond_Acceptors:                   7
##########                        HBond_Donors:                   0
##########                         Heavy_Atoms:                  26
##########                          Grid_Score:          -30.086521
##########                     Grid_vdw_energy:          -29.667345
##########                      Grid_es_energy:           -0.419177
##########           Internal_energy_repulsive:           15.500888

@<TRIPOS>MOLECULE
ZINC000185180600
 52 53 1 0 0
SMALL
USER_CHARGES


@<TRIPOS>ATOM
      1 C1          2.2650   -0.7521   47.6245 C.3     1  ZINC000185180600   -0.1500
      2 C2          2.0724    0.0989   48.8814 C.3     1  ZINC000185180600   -0.0900
      3 C3          3.1884   -0.2092   49.8817 C.3     1  ZINC000185180600   -0.1500
      4 C4          2.1192    1.5813   48.5057 C.3     1  ZINC000185180600   -0.1300
      5 C5          0.7525    2.0157   47.9727 C.3     1  ZINC000185180600    0.1300
      6 H6          0.1012    1.1455   47.8905 H       1  ZINC000185180600    0.1100
      7 C7          0.9230    2.6573   46.5942 C.3     1  ZINC000185180600   -0.1600
      8 N8          0.1557    2.9869   48.8929 N.am    1  ZINC000185180600   -0.6000
      9 C9          0.6895    4.3492   48.9675 C.3     1  ZINC000185180600    0.0700
     10 C10        -0.8844    2.6274   49.6709 C.2     1  ZINC000185180600    0.5400
     11 O11        -1.3274    1.5001   49.6081 O.2     1  ZINC000185180600   -0.5300
     12 C12        -1.4971    3.6259   50.6188 C.3     1  ZINC000185180600   -0.5000
     13 S13        -2.7105    2.7897   51.6767 S.o     1  ZINC000185180600    1.3200
     14 O14        -3.7724    2.2897   50.8756 O.2     1  ZINC000185180600   -0.8000
     15 C15        -3.3277    4.1319   52.7294 C.3     1  ZINC000185180600   -0.3900
     16 C16        -4.3623    3.5888   53.6809 C.2     1  ZINC000185180600    0.1000
     17 N17        -5.4926    3.0220   53.3431 N.2     1  ZINC000185180600   -0.2800
     18 N18        -6.1673    2.6572   54.5154 N.pl3   1  ZINC000185180600   -0.3200
     19 C19        -7.4156    2.0226   54.5858 C.ar    1  ZINC000185180600    0.1700
     20 C20        -7.8404    1.2067   53.5460 C.ar    1  ZINC000185180600   -0.1300
     21 C21        -9.0704    0.5828   53.6175 C.ar    1  ZINC000185180600   -0.0800
     22 C22        -9.8796    0.7709   54.7243 C.ar    1  ZINC000185180600   -0.0500
     23 Cl23      -11.4252   -0.0148   54.8114 Cl      1  ZINC000185180600   -0.0600
     24 C24        -9.4583    1.5837   55.7621 C.ar    1  ZINC000185180600   -0.0800
     25 C25        -8.2264    2.2048   55.6979 C.ar    1  ZINC000185180600   -0.1100
     26 C26        -5.4014    3.0255   55.5671 C.2     1  ZINC000185180600    0.0600
     27 C27        -4.2773    3.5982   55.0774 C.2     1  ZINC000185180600   -0.2500
     28 H28         2.2317   -1.8083   47.8922 H       1  ZINC000185180600    0.0500
     29 H29         1.4700   -0.5327   46.9119 H       1  ZINC000185180600    0.0600
     30 H30         3.2305   -0.5217   47.1742 H       1  ZINC000185180600    0.0500
     31 H31         1.1070   -0.1315   49.3318 H       1  ZINC000185180600    0.0700
     32 H32         3.1044   -1.2444   50.2125 H       1  ZINC000185180600    0.0500
     33 H33         4.1565   -0.0577   49.4041 H       1  ZINC000185180600    0.0500
     34 H34         3.0994    0.4552   50.7412 H       1  ZINC000185180600    0.0500
     35 H35         2.3700    2.1717   49.3869 H       1  ZINC000185180600    0.0700
     36 H36         2.8755    1.7375   47.7364 H       1  ZINC000185180600    0.0800
     37 H37         1.5742    3.5275   46.6765 H       1  ZINC000185180600    0.0600
     38 H38         1.3670    1.9346   45.9096 H       1  ZINC000185180600    0.0700
     39 H39        -0.0508    2.9668   46.2145 H       1  ZINC000185180600    0.0600
     40 H40         0.1689    4.9832   48.2498 H       1  ZINC000185180600    0.0600
     41 H41         0.5426    4.7425   49.9733 H       1  ZINC000185180600    0.0700
     42 H42         1.7542    4.3354   48.7346 H       1  ZINC000185180600    0.0800
     43 H43        -0.7157    4.0649   51.2391 H       1  ZINC000185180600    0.1500
     44 H44        -1.9926    4.4116   50.0485 H       1  ZINC000185180600    0.1200
     45 H45        -2.5004    4.5583   53.2969 H       1  ZINC000185180600    0.1400
     46 H46        -3.7774    4.9050   52.1063 H       1  ZINC000185180600    0.1000
     47 H47        -7.2095    1.0602   52.6816 H       1  ZINC000185180600    0.1400
     48 H48        -9.4013   -0.0520   52.8088 H       1  ZINC000185180600    0.1500
     49 H49       -10.0917    1.7292   56.6247 H       1  ZINC000185180600    0.1400
     50 H50        -7.8982    2.8391   56.5080 H       1  ZINC000185180600    0.1500
     51 H51        -5.6414    2.8837   56.6106 H       1  ZINC000185180600    0.1800
     52 H52        -3.4621    3.9988   55.6616 H       1  ZINC000185180600    0.1700
@<TRIPOS>BOND
     1     1     2    1
     2     1    28    1
     3     1    29    1
     4     1    30    1
     5     2     3    1
     6     2     4    1
     7     2    31    1
     8     3    32    1
     9     3    33    1
    10     3    34    1
    11     4     5    1
    12     4    35    1
    13     4    36    1
    14     5     6    1
    15     5     7    1
    16     5     8    1
    17     7    37    1
    18     7    38    1
    19     7    39    1
    20     8     9    1
    21     8    10   am
    22     9    40    1
    23     9    41    1
    24     9    42    1
    25    10    11    2
    26    10    12    1
    27    12    13    1
    28    12    43    1
    29    12    44    1
    30    13    14    2
    31    13    15    1
    32    15    16    1
    33    15    45    1
    34    15    46    1
    35    16    27    1
    36    16    17    2
    37    17    18    1
    38    18    19    1
    39    18    26    1
    40    19    25   ar
    41    19    20   ar
    42    20    21   ar
    43    20    47    1
    44    21    22   ar
    45    21    48    1
    46    22    23    1
    47    22    24   ar
    48    24    25   ar
    49    24    49    1
    50    25    50    1
    51    26    27    2
    52    26    51    1
    53    27    52    1
@<TRIPOS>SUBSTRUCTURE
     1 ZINC000185180600        1 TEMP              0 ****  ****    0 ROOT


##########                                Name:    ZINC001009116151
##########                DOCK_Rotatable_Bonds:                   6
##########                         Heavy_Atoms:                  25
##########                    Molecular_Weight:             342.481
##########                DOCK_Rotatable_Bonds:                   6
##########                       Formal_Charge:           0.0600006
##########                     HBond_Acceptors:                   4
##########                        HBond_Donors:                   1
##########                         Heavy_Atoms:                  25
##########                          Grid_Score:          -30.080557
##########                     Grid_vdw_energy:          -30.434484
##########                      Grid_es_energy:            0.353928
##########           Internal_energy_repulsive:           10.053034

@<TRIPOS>MOLECULE
ZINC001009116151
 55 59 1 0 0
SMALL
USER_CHARGES


@<TRIPOS>ATOM
      1 O1         -0.4358    3.8047   51.7482 O.2     1  ZINC001009116151   -0.5400
      2 C2         -0.9701    3.3590   50.7548 C.2     1  ZINC001009116151    0.5200
      3 N3         -2.3133    3.3782   50.6460 N.am    1  ZINC001009116151   -0.7300
      4 C4         -3.1282    3.9317   51.7302 C.3     1  ZINC001009116151    0.1500
      5 C5         -4.5851    3.5037   51.5430 C.3     1  ZINC001009116151   -0.1200
      6 H6         -5.1867    4.1521   50.9059 H       1  ZINC001009116151    0.1100
      7 C7         -5.2828    2.8380   52.7308 C.3     1  ZINC001009116151   -0.1700
      8 H8         -4.7577    2.7498   53.6818 H       1  ZINC001009116151    0.1200
      9 C9         -6.8264    2.8408   52.7631 C.3     1  ZINC001009116151    0.1300
     10 N10        -7.2184    1.6315   52.0024 N.am    1  ZINC001009116151   -0.6200
     11 C11        -8.2167    0.7691   52.2779 C.2     1  ZINC001009116151    0.5500
     12 O12        -8.4127   -0.1834   51.5532 O.2     1  ZINC001009116151   -0.5300
     13 C13        -9.0896    0.9884   53.4866 C.3     1  ZINC001009116151   -0.1200
     14 C14       -10.3143    1.8646   53.1354 C.3     1  ZINC001009116151   -0.0900
     15 C15       -11.4080    0.8782   52.7973 C.2     1  ZINC001009116151   -0.1800
     16 C16       -11.1118   -0.3177   53.2280 C.2     1  ZINC001009116151   -0.1500
     17 C17        -9.7714   -0.3285   53.9253 C.3     1  ZINC001009116151   -0.0900
     18 C18        -6.2640    1.5853   50.8703 C.3     1  ZINC001009116151    0.1200
     19 C19        -4.8792    2.0029   51.4997 C.3     1  ZINC001009116151   -0.1600
     20 H20        -4.0845    1.2570   51.5122 H       1  ZINC001009116151    0.1300
     21 C21        -0.1318    2.7896   49.6393 C.3     1  ZINC001009116151   -0.0700
     22 C22        -1.0443    2.1498   48.5911 C.3     1  ZINC001009116151   -0.1100
     23 C23        -0.1933    1.5717   47.4587 C.3     1  ZINC001009116151   -0.1100
     24 C24         1.2866    1.8261   47.7520 C.3     1  ZINC001009116151   -0.0900
     25 C25         1.5340    3.3322   47.8581 C.3     1  ZINC001009116151   -0.1100
     26 C26         0.6829    3.9103   48.9904 C.3     1  ZINC001009116151   -0.0900
     27 C27         1.6681    1.1525   49.0717 C.3     1  ZINC001009116151   -0.1100
     28 C28         0.8170    1.7306   50.2041 C.3     1  ZINC001009116151   -0.1000
     29 H29        -2.7405    3.0254   49.8498 H       1  ZINC001009116151    0.4000
     30 H30        -2.7606    3.5607   52.6869 H       1  ZINC001009116151    0.0800
     31 H31        -3.0642    5.0198   51.7138 H       1  ZINC001009116151    0.0700
     32 H32        -7.1852    2.7766   53.7903 H       1  ZINC001009116151    0.0900
     33 H33        -7.2151    3.7369   52.2791 H       1  ZINC001009116151    0.0800
     34 H34        -8.5176    1.4245   54.3057 H       1  ZINC001009116151    0.1100
     35 H35       -10.6038    2.4735   53.9919 H       1  ZINC001009116151    0.0900
     36 H36       -10.0944    2.4972   52.2754 H       1  ZINC001009116151    0.0800
     37 H37       -12.3156    1.1299   52.2688 H       1  ZINC001009116151    0.1300
     38 H38       -11.7423   -1.1856   53.1029 H       1  ZINC001009116151    0.1300
     39 H39        -9.1823   -1.1869   53.6024 H       1  ZINC001009116151    0.0900
     40 H40        -9.9060   -0.3445   55.0068 H       1  ZINC001009116151    0.0900
     41 H41        -6.1985    0.5738   50.4694 H       1  ZINC001009116151    0.0900
     42 H42        -6.5648    2.2852   50.0907 H       1  ZINC001009116151    0.0800
     43 H43        -1.6247    1.3513   49.0535 H       1  ZINC001009116151    0.0700
     44 H44        -1.7204    2.9043   48.1889 H       1  ZINC001009116151    0.0700
     45 H45        -0.3695    0.4986   47.3832 H       1  ZINC001009116151    0.0700
     46 H46        -0.4651    2.0515   46.5186 H       1  ZINC001009116151    0.0700
     47 H47         1.8929    1.4142   46.9452 H       1  ZINC001009116151    0.0700
     48 H48         2.5883    3.5134   48.0670 H       1  ZINC001009116151    0.0700
     49 H49         1.2621    3.8121   46.9179 H       1  ZINC001009116151    0.0700
     50 H50         0.0069    4.6648   48.5881 H       1  ZINC001009116151    0.0700
     51 H51         1.3330    4.3662   49.7372 H       1  ZINC001009116151    0.0700
     52 H52         1.4919    0.0794   48.9962 H       1  ZINC001009116151    0.0700
     53 H53         2.7225    1.3337   49.2807 H       1  ZINC001009116151    0.0700
     54 H54         1.4672    2.1864   50.9509 H       1  ZINC001009116151    0.0700
     55 H55         0.2367    0.9321   50.6665 H       1  ZINC001009116151    0.0700
@<TRIPOS>BOND
     1     1     2    2
     2     2     3   am
     3     2    21    1
     4     3     4    1
     5     3    29    1
     6     4     5    1
     7     4    30    1
     8     4    31    1
     9     5     6    1
    10     5    19    1
    11     5     7    1
    12     7     8    1
    13     7    19    1
    14     7     9    1
    15     9    10    1
    16     9    32    1
    17     9    33    1
    18    10    11   am
    19    10    18    1
    20    11    12    2
    21    11    13    1
    22    13    17    1
    23    13    14    1
    24    13    34    1
    25    14    15    1
    26    14    35    1
    27    14    36    1
    28    15    16    2
    29    15    37    1
    30    16    17    1
    31    16    38    1
    32    17    39    1
    33    17    40    1
    34    18    19    1
    35    18    41    1
    36    18    42    1
    37    19    20    1
    38    21    26    1
    39    21    28    1
    40    21    22    1
    41    22    23    1
    42    22    43    1
    43    22    44    1
    44    23    24    1
    45    23    45    1
    46    23    46    1
    47    24    25    1
    48    24    27    1
    49    24    47    1
    50    25    26    1
    51    25    48    1
    52    25    49    1
    53    26    50    1
    54    26    51    1
    55    27    28    1
    56    27    52    1
    57    27    53    1
    58    28    54    1
    59    28    55    1
@<TRIPOS>SUBSTRUCTURE
     1 ZINC001009116151        1 TEMP              0 ****  ****    0 ROOT


##########                                Name:    ZINC001456607258
##########                DOCK_Rotatable_Bonds:                   9
##########                         Heavy_Atoms:                  25
##########                    Molecular_Weight:             339.437
##########                DOCK_Rotatable_Bonds:                   9
##########                       Formal_Charge:          -0.0200009
##########                     HBond_Acceptors:                   5
##########                        HBond_Donors:                   2
##########                         Heavy_Atoms:                  25
##########                          Grid_Score:          -30.075247
##########                     Grid_vdw_energy:          -29.236315
##########                      Grid_es_energy:           -0.838932
##########           Internal_energy_repulsive:           12.861580

@<TRIPOS>MOLECULE
ZINC001456607258
 50 52 1 0 0
SMALL
USER_CHARGES


@<TRIPOS>ATOM
      1 C1          1.8220    3.1720   51.9064 C.3     1  ZINC001456607258   -0.1600
      2 C2          1.6621    3.1627   50.3848 C.3     1  ZINC001456607258   -0.1100
      3 C3          0.7686    1.9909   49.9730 C.3     1  ZINC001456607258   -0.1000
      4 H4          0.7191    1.2681   50.7873 H       1  ZINC001456607258    0.0900
      5 C5          1.3512    1.3181   48.7285 C.3     1  ZINC001456607258   -0.0700
      6 C6          2.5125    0.4443   49.1271 C.ar    1  ZINC001456607258   -0.0800
      7 C7          2.3134   -0.6209   49.9853 C.ar    1  ZINC001456607258   -0.1200
      8 C8          3.3787   -1.4224   50.3510 C.ar    1  ZINC001456607258   -0.1200
      9 C9          4.6430   -1.1590   49.8580 C.ar    1  ZINC001456607258   -0.1200
     10 C10         4.8419   -0.0944   48.9991 C.ar    1  ZINC001456607258   -0.1200
     11 C11         3.7759    0.7045   48.6300 C.ar    1  ZINC001456607258   -0.1200
     12 C12        -0.6169    2.4990   49.6673 C.2     1  ZINC001456607258    0.5200
     13 O13        -0.8836    2.9007   48.5545 O.2     1  ZINC001456607258   -0.5300
     14 N14        -1.5595    2.5069   50.6305 N.am    1  ZINC001456607258   -0.7300
     15 C15        -2.9064    3.0008   50.3334 C.3     1  ZINC001456607258    0.1300
     16 C16        -3.9207    2.2857   51.2281 C.3     1  ZINC001456607258   -0.1400
     17 C17        -4.0352    2.8885   52.6399 C.3     1  ZINC001456607258    0.1100
     18 N18        -5.4925    2.7110   52.4886 N.am    1  ZINC001456607258   -0.6500
     19 C19        -6.5207    2.5662   53.3479 C.2     1  ZINC001456607258    0.6100
     20 O20        -7.6530    2.4329   52.9245 O.2     1  ZINC001456607258   -0.5400
     21 C21        -6.2729    2.5695   54.7996 C.2     1  ZINC001456607258   -0.2300
     22 C22        -7.1445    2.1902   55.7831 C.2     1  ZINC001456607258    0.0400
     23 N23        -6.5341    2.3422   56.9736 N.pl3   1  ZINC001456607258   -0.5500
     24 C24        -5.2671    2.8178   56.7987 C.2     1  ZINC001456607258   -0.0200
     25 C25        -5.0395    2.9741   55.4825 C.2     1  ZINC001456607258   -0.1400
     26 C26        -5.3717    2.7554   51.0185 C.3     1  ZINC001456607258    0.1100
     27 H27         2.5305    3.9494   52.1926 H       1  ZINC001456607258    0.0600
     28 H28         0.8566    3.3711   52.3720 H       1  ZINC001456607258    0.0600
     29 H29         2.1926    2.2024   52.2388 H       1  ZINC001456607258    0.0600
     30 H30         1.2060    4.0985   50.0616 H       1  ZINC001456607258    0.0800
     31 H31         2.6409    3.0551   49.9173 H       1  ZINC001456607258    0.0700
     32 H32         0.5837    0.7077   48.2526 H       1  ZINC001456607258    0.0800
     33 H33         1.6938    2.0812   48.0296 H       1  ZINC001456607258    0.0900
     34 H34         1.3256   -0.8267   50.3705 H       1  ZINC001456607258    0.1200
     35 H35         3.2231   -2.2542   51.0221 H       1  ZINC001456607258    0.1200
     36 H36         5.4753   -1.7847   50.1443 H       1  ZINC001456607258    0.1200
     37 H37         5.8298    0.1116   48.6142 H       1  ZINC001456607258    0.1200
     38 H38         3.9313    1.5363   47.9589 H       1  ZINC001456607258    0.1200
     39 H39        -1.3461    2.1855   51.5205 H       1  ZINC001456607258    0.4000
     40 H40        -2.9495    4.0737   50.5208 H       1  ZINC001456607258    0.0700
     41 H41        -3.1427    2.8048   49.2875 H       1  ZINC001456607258    0.0800
     42 H42        -3.8049    1.2018   51.2198 H       1  ZINC001456607258    0.1100
     43 H43        -3.5956    2.2669   53.4201 H       1  ZINC001456607258    0.0800
     44 H44        -3.7235    3.9313   52.6991 H       1  ZINC001456607258    0.0900
     45 H45        -8.1512    1.8301   55.6307 H       1  ZINC001456607258    0.1700
     46 H46        -6.9375    2.1426   57.8329 H       1  ZINC001456607258    0.4200
     47 H47        -4.5609    3.0293   57.5880 H       1  ZINC001456607258    0.1700
     48 H48        -4.1316    3.3333   55.0207 H       1  ZINC001456607258    0.1500
     49 H49        -5.4525    3.7592   50.6012 H       1  ZINC001456607258    0.0900
     50 H50        -5.9991    2.0277   50.5039 H       1  ZINC001456607258    0.0900
@<TRIPOS>BOND
     1     1     2    1
     2     1    27    1
     3     1    28    1
     4     1    29    1
     5     2     3    1
     6     2    30    1
     7     2    31    1
     8     3     4    1
     9     3     5    1
    10     3    12    1
    11     5     6    1
    12     5    32    1
    13     5    33    1
    14     6    11   ar
    15     6     7   ar
    16     7     8   ar
    17     7    34    1
    18     8     9   ar
    19     8    35    1
    20     9    10   ar
    21     9    36    1
    22    10    11   ar
    23    10    37    1
    24    11    38    1
    25    12    13    2
    26    12    14   am
    27    14    15    1
    28    14    39    1
    29    15    16    1
    30    15    40    1
    31    15    41    1
    32    16    26    1
    33    16    17    1
    34    16    42    1
    35    17    18    1
    36    17    43    1
    37    17    44    1
    38    18    19   am
    39    18    26    1
    40    19    20    2
    41    19    21    1
    42    21    25    1
    43    21    22    2
    44    22    23    1
    45    22    45    1
    46    23    24    1
    47    23    46    1
    48    24    25    2
    49    24    47    1
    50    25    48    1
    51    26    49    1
    52    26    50    1
@<TRIPOS>SUBSTRUCTURE
     1 ZINC001456607258        1 TEMP              0 ****  ****    0 ROOT


##########                                Name:    ZINC001061022329
##########                DOCK_Rotatable_Bonds:                   7
##########                         Heavy_Atoms:                  27
##########                    Molecular_Weight:             374.523
##########                DOCK_Rotatable_Bonds:                   7
##########                       Formal_Charge:           0.0800005
##########                     HBond_Acceptors:                   5
##########                        HBond_Donors:                   0
##########                         Heavy_Atoms:                  27
##########                          Grid_Score:          -30.025331
##########                     Grid_vdw_energy:          -29.173119
##########                      Grid_es_energy:           -0.852213
##########           Internal_energy_repulsive:           17.701866

@<TRIPOS>MOLECULE
ZINC001061022329
 61 64 1 0 0
SMALL
USER_CHARGES


@<TRIPOS>ATOM
      1 C1         -1.8472    2.4581   49.0570 C.3     1  ZINC001061022329   -0.1500
      2 C2         -2.1286    3.2356   50.3444 C.3     1  ZINC001061022329   -0.1200
      3 C3         -3.3436    2.6304   51.0504 C.3     1  ZINC001061022329    0.0800
      4 H4         -3.1536    1.5783   51.2628 H       1  ZINC001061022329    0.0600
      5 C5         -3.5963    3.3778   52.3613 C.3     1  ZINC001061022329   -0.1800
      6 O6         -4.4913    2.7463   50.2070 O.3     1  ZINC001061022329   -0.3500
      7 C7         -5.6139    1.9778   50.6442 C.3     1  ZINC001061022329    0.0500
      8 C8         -6.7259    2.9053   51.0612 C.2     1  ZINC001061022329    0.5200
      9 O9         -6.6590    4.0880   50.8007 O.2     1  ZINC001061022329   -0.5100
     10 N10        -7.7949    2.4207   51.7237 N.am    1  ZINC001061022329   -0.6100
     11 C11        -8.8867    3.3147   52.1312 C.3     1  ZINC001061022329    0.1100
     12 C12        -9.0962    3.1794   53.6441 C.3     1  ZINC001061022329   -0.1200
     13 C13        -9.2693    1.7036   53.9948 C.3     1  ZINC001061022329   -0.0900
     14 C14        -9.7053    1.4636   55.4467 C.3     1  ZINC001061022329    0.1200
     15 N15       -10.6256    0.4500   54.8935 N.am    1  ZINC001061022329   -0.6400
     16 C16       -11.2212   -0.6538   55.3871 C.2     1  ZINC001061022329    0.5400
     17 O17       -11.9498   -1.3174   54.6803 O.2     1  ZINC001061022329   -0.5300
     18 C18       -10.9816   -1.0632   56.8176 C.3     1  ZINC001061022329   -0.0900
     19 H19       -10.0534   -0.6158   57.1727 H       1  ZINC001061022329    0.1000
     20 C20       -10.8774   -2.5877   56.9008 C.3     1  ZINC001061022329   -0.1000
     21 C21       -11.9734   -3.1274   57.8286 C.3     1  ZINC001061022329   -0.0600
     22 H22       -11.9499   -4.2166   57.8617 H       1  ZINC001061022329    0.0800
     23 C23       -13.3133   -2.6323   57.3044 C.2     1  ZINC001061022329   -0.1800
     24 C24       -13.4040   -1.3065   57.2320 C.2     1  ZINC001061022329   -0.1300
     25 C25       -12.1480   -0.5805   57.6894 C.3     1  ZINC001061022329   -0.0400
     26 H26       -12.2770    0.4993   57.6158 H       1  ZINC001061022329    0.0900
     27 C27       -11.8706   -0.9977   59.1403 C.3     1  ZINC001061022329   -0.1100
     28 C28       -11.7556   -2.5355   59.2279 C.3     1  ZINC001061022329   -0.1100
     29 C29       -10.6327    1.1307   53.5833 C.3     1  ZINC001061022329    0.1100
     30 C30        -8.0879    0.8400   53.5602 C.3     1  ZINC001061022329   -0.1100
     31 C31        -7.8875    0.9900   52.0429 C.3     1  ZINC001061022329    0.1100
     32 H32        -1.6441    1.4150   49.2995 H       1  ZINC001061022329    0.0500
     33 H33        -2.7152    2.5162   48.4004 H       1  ZINC001061022329    0.0600
     34 H34        -0.9816    2.8892   48.5540 H       1  ZINC001061022329    0.0600
     35 H35        -1.2605    3.1775   51.0010 H       1  ZINC001061022329    0.0800
     36 H36        -2.3315    4.2787   50.1018 H       1  ZINC001061022329    0.0700
     37 H37        -4.4618    2.9467   52.8642 H       1  ZINC001061022329    0.0600
     38 H38        -2.7209    3.2894   53.0045 H       1  ZINC001061022329    0.0700
     39 H39        -3.7863    4.4299   52.1488 H       1  ZINC001061022329    0.0700
     40 H40        -5.9581    1.3413   49.8290 H       1  ZINC001061022329    0.0800
     41 H41        -5.3215    1.3571   51.4912 H       1  ZINC001061022329    0.0800
     42 H42        -8.6250    4.3449   51.8892 H       1  ZINC001061022329    0.0900
     43 H43        -9.8019    3.0356   51.6091 H       1  ZINC001061022329    0.0800
     44 H44        -8.2290    3.5795   54.1694 H       1  ZINC001061022329    0.0800
     45 H45        -9.9888    3.7312   53.9392 H       1  ZINC001061022329    0.0800
     46 H46        -8.9206    1.0470   56.0783 H       1  ZINC001061022329    0.0800
     47 H47       -10.2111    2.3158   55.9006 H       1  ZINC001061022329    0.0900
     48 H48       -11.0011   -3.0150   55.9057 H       1  ZINC001061022329    0.0700
     49 H49        -9.8994   -2.8637   57.2953 H       1  ZINC001061022329    0.0700
     50 H50       -14.1162   -3.2953   57.0178 H       1  ZINC001061022329    0.1200
     51 H51       -14.2872   -0.7937   56.8807 H       1  ZINC001061022329    0.1200
     52 H52       -10.9339   -0.5511   59.4738 H       1  ZINC001061022329    0.0700
     53 H53       -12.6842   -0.6540   59.7789 H       1  ZINC001061022329    0.0700
     54 H54       -12.5186   -2.9186   59.9054 H       1  ZINC001061022329    0.0700
     55 H55       -10.7684   -2.8049   59.6034 H       1  ZINC001061022329    0.0700
     56 H56       -11.4142    1.8841   53.4834 H       1  ZINC001061022329    0.0900
     57 H57       -10.5852    0.4496   52.7336 H       1  ZINC001061022329    0.0800
     58 H58        -7.1879    1.1640   54.0828 H       1  ZINC001061022329    0.0800
     59 H59        -8.2926   -0.2039   53.7980 H       1  ZINC001061022329    0.0800
     60 H60        -8.7332    0.5468   51.5171 H       1  ZINC001061022329    0.0700
     61 H61        -6.9663    0.4896   51.7447 H       1  ZINC001061022329    0.1000
@<TRIPOS>BOND
     1     1     2    1
     2     1    32    1
     3     1    33    1
     4     1    34    1
     5     2     3    1
     6     2    35    1
     7     2    36    1
     8     3     4    1
     9     3     5    1
    10     3     6    1
    11     5    37    1
    12     5    38    1
    13     5    39    1
    14     6     7    1
    15     7     8    1
    16     7    40    1
    17     7    41    1
    18     8     9    2
    19     8    10   am
    20    10    31    1
    21    10    11    1
    22    11    12    1
    23    11    42    1
    24    11    43    1
    25    12    13    1
    26    12    44    1
    27    12    45    1
    28    13    29    1
    29    13    14    1
    30    13    30    1
    31    14    15    1
    32    14    46    1
    33    14    47    1
    34    15    16   am
    35    15    29    1
    36    16    17    2
    37    16    18    1
    38    18    19    1
    39    18    25    1
    40    18    20    1
    41    20    21    1
    42    20    48    1
    43    20    49    1
    44    21    22    1
    45    21    28    1
    46    21    23    1
    47    23    24    2
    48    23    50    1
    49    24    25    1
    50    24    51    1
    51    25    26    1
    52    25    27    1
    53    27    28    1
    54    27    52    1
    55    27    53    1
    56    28    54    1
    57    28    55    1
    58    29    56    1
    59    29    57    1
    60    30    31    1
    61    30    58    1
    62    30    59    1
    63    31    60    1
    64    31    61    1
@<TRIPOS>SUBSTRUCTURE
     1 ZINC001061022329        1 TEMP              0 ****  ****    0 ROOT


##########                                Name:    ZINC000809503567
##########                DOCK_Rotatable_Bonds:                   9
##########                         Heavy_Atoms:                  26
##########                    Molecular_Weight:             353.378
##########                DOCK_Rotatable_Bonds:                   9
##########                       Formal_Charge:          -0.0200002
##########                     HBond_Acceptors:                   7
##########                        HBond_Donors:                   1
##########                         Heavy_Atoms:                  26
##########                          Grid_Score:          -29.993971
##########                     Grid_vdw_energy:          -28.199043
##########                      Grid_es_energy:           -1.794927
##########           Internal_energy_repulsive:            7.636244

@<TRIPOS>MOLECULE
ZINC000809503567
 45 46 1 0 0
SMALL
USER_CHARGES


@<TRIPOS>ATOM
      1 C1         -5.7488    2.7126   50.9132 C.3     1  ZINC000809503567    0.0200
      2 O2         -4.5114    2.0022   50.9927 O.3     1  ZINC000809503567   -0.3100
      3 C3         -3.5402    2.5418   51.7719 C.ar    1  ZINC000809503567    0.1900
      4 C4         -3.7914    2.8165   53.1070 C.ar    1  ZINC000809503567   -0.2100
      5 C5         -2.8019    3.3659   53.8992 C.ar    1  ZINC000809503567   -0.0200
      6 C6         -1.5543    3.6466   53.3680 C.ar    1  ZINC000809503567   -0.1500
      7 C7         -0.4840    4.2462   54.2431 C.3     1  ZINC000809503567    0.1700
      8 N8         -0.0626    3.2620   55.2430 N.am    1  ZINC000809503567   -0.7000
      9 C9          0.8008    3.6166   56.2154 C.2     1  ZINC000809503567    0.5100
     10 O10         1.2301    4.7506   56.2617 O.2     1  ZINC000809503567   -0.4900
     11 C11         1.2292    2.6131   57.2366 C.2     1  ZINC000809503567    0.5100
     12 O12         2.1988    1.9132   57.0300 O.2     1  ZINC000809503567   -0.5000
     13 N13         0.5388    2.4853   58.3869 N.am    1  ZINC000809503567   -0.4600
     14 C14        -0.6307    3.3315   58.6372 C.3     1  ZINC000809503567    0.0800
     15 O15         0.9438    1.5333   59.3538 O.3     1  ZINC000809503567   -0.1100
     16 C16        -0.1408    0.8707   60.0070 C.3     1  ZINC000809503567    0.0800
     17 C17         0.3939   -0.2631   60.8434 C.ar    1  ZINC000809503567   -0.0900
     18 C18         1.5484   -0.0911   61.5839 C.ar    1  ZINC000809503567   -0.1000
     19 C19         2.0389   -1.1312   62.3512 C.ar    1  ZINC000809503567   -0.1300
     20 C20         1.3745   -2.3431   62.3784 C.ar    1  ZINC000809503567   -0.1100
     21 C21         0.2194   -2.5149   61.6386 C.ar    1  ZINC000809503567   -0.1300
     22 C22        -0.2733   -1.4734   60.8747 C.ar    1  ZINC000809503567   -0.0800
     23 C23        -1.2868    3.3793   52.0421 C.ar    1  ZINC000809503567   -0.0100
     24 C24        -2.2765    2.8185   51.2315 C.ar    1  ZINC000809503567   -0.0600
     25 C25        -2.0055    2.5385   49.8536 C.1     1  ZINC000809503567    0.2600
     26 N26        -1.7904    2.3163   48.7604 N.1     1  ZINC000809503567   -0.4100
     27 H27        -5.5702    3.7095   50.5102 H       1  ZINC000809503567    0.0600
     28 H28        -6.4355    2.1743   50.2598 H       1  ZINC000809503567    0.1100
     29 H29        -6.1846    2.7958   51.9088 H       1  ZINC000809503567    0.0600
     30 H30        -4.7621    2.6011   53.5286 H       1  ZINC000809503567    0.1400
     31 H31        -3.0027    3.5780   54.9390 H       1  ZINC000809503567    0.1400
     32 H32         0.3711    4.5293   53.6290 H       1  ZINC000809503567    0.0900
     33 H33        -0.8784    5.1292   54.7459 H       1  ZINC000809503567    0.0900
     34 H34        -0.4048    2.3552   55.2053 H       1  ZINC000809503567    0.4100
     35 H35        -1.5249    2.8366   58.2585 H       1  ZINC000809503567    0.0800
     36 H36        -0.7349    3.4995   59.7091 H       1  ZINC000809503567    0.0800
     37 H37        -0.5024    4.2878   58.1304 H       1  ZINC000809503567    0.0900
     38 H38        -0.6660    1.5788   60.6480 H       1  ZINC000809503567    0.0700
     39 H39        -0.8295    0.4773   59.2594 H       1  ZINC000809503567    0.0600
     40 H40         2.0675    0.8557   61.5627 H       1  ZINC000809503567    0.1200
     41 H41         2.9413   -0.9970   62.9291 H       1  ZINC000809503567    0.1200
     42 H42         1.7581   -3.1559   62.9772 H       1  ZINC000809503567    0.1200
     43 H43        -0.2994   -3.4618   61.6595 H       1  ZINC000809503567    0.1200
     44 H44        -1.1758   -1.6076   60.2967 H       1  ZINC000809503567    0.1300
     45 H45        -0.3125    3.5998   51.6319 H       1  ZINC000809503567    0.1400
@<TRIPOS>BOND
     1     1     2    1
     2     1    27    1
     3     1    28    1
     4     1    29    1
     5     2     3    1
     6     3    24   ar
     7     3     4   ar
     8     4     5   ar
     9     4    30    1
    10     5     6   ar
    11     5    31    1
    12     6     7    1
    13     6    23   ar
    14     7     8    1
    15     7    32    1
    16     7    33    1
    17     8     9   am
    18     8    34    1
    19     9    10    2
    20     9    11    1
    21    11    12    2
    22    11    13   am
    23    13    14    1
    24    13    15    1
    25    14    35    1
    26    14    36    1
    27    14    37    1
    28    15    16    1
    29    16    17    1
    30    16    38    1
    31    16    39    1
    32    17    22   ar
    33    17    18   ar
    34    18    19   ar
    35    18    40    1
    36    19    20   ar
    37    19    41    1
    38    20    21   ar
    39    20    42    1
    40    21    22   ar
    41    21    43    1
    42    22    44    1
    43    23    24   ar
    44    23    45    1
    45    24    25    1
    46    25    26    3
@<TRIPOS>SUBSTRUCTURE
     1 ZINC000809503567        1 TEMP              0 ****  ****    0 ROOT


##########                                Name:    ZINC001105194920
##########                DOCK_Rotatable_Bonds:                   8
##########                         Heavy_Atoms:                  25
##########                    Molecular_Weight:             346.392
##########                DOCK_Rotatable_Bonds:                   8
##########                       Formal_Charge:          -0.0100007
##########                     HBond_Acceptors:                  10
##########                        HBond_Donors:                   3
##########                         Heavy_Atoms:                  25
##########                          Grid_Score:          -29.971825
##########                     Grid_vdw_energy:          -28.058916
##########                      Grid_es_energy:           -1.912909
##########           Internal_energy_repulsive:           10.302925

@<TRIPOS>MOLECULE
ZINC001105194920
 47 49 1 0 0
SMALL
USER_CHARGES


@<TRIPOS>ATOM
      1 C1         -1.9299    2.7165   55.7489 C.3     1  ZINC001105194920    0.0300
      2 O2         -3.0300    3.1156   56.5690 O.3     1  ZINC001105194920   -0.3900
      3 C3         -4.2398    3.3492   55.8453 C.3     1  ZINC001105194920    0.0700
      4 C4         -5.3495    3.7451   56.8213 C.3     1  ZINC001105194920    0.0900
      5 H5         -5.4580    2.9713   57.5814 H       1  ZINC001105194920    0.0900
      6 C6         -4.9892    5.0721   57.4922 C.3     1  ZINC001105194920   -0.1800
      7 N7         -6.6149    3.8938   56.0899 N.3     1  ZINC001105194920   -0.6800
      8 C8         -7.7575    3.9114   57.0130 C.3     1  ZINC001105194920    0.1400
      9 C9         -7.8568    2.5814   57.7148 C.2     1  ZINC001105194920   -0.0200
     10 C10        -8.2218    2.3697   59.0009 C.2     1  ZINC001105194920   -0.0200
     11 N11        -8.1687    1.0312   59.1923 N.pl3   1  ZINC001105194920   -0.2800
     12 C12        -8.4822    0.3293   60.4394 C.3     1  ZINC001105194920    0.1000
     13 C13        -9.9425   -0.1489   60.5313 C.3     1  ZINC001105194920    0.1100
     14 N14        -9.4648   -1.4035   59.9183 N.am    1  ZINC001105194920   -0.6300
     15 C15       -10.0430   -2.3786   59.1892 C.2     1  ZINC001105194920    0.6200
     16 O16        -9.3819   -3.3239   58.8056 O.2     1  ZINC001105194920   -0.5400
     17 C17       -11.4800   -2.2984   58.8560 C.ar    1  ZINC001105194920   -0.0600
     18 N18       -12.3964   -2.4629   59.8056 N.ar    1  ZINC001105194920   -0.3700
     19 C19       -13.6772   -2.3909   59.5050 C.ar    1  ZINC001105194920   -0.0200
     20 C20       -14.0781   -2.1436   58.1999 C.ar    1  ZINC001105194920    0.1500
     21 N21       -13.1797   -1.9786   57.2462 N.ar    1  ZINC001105194920   -0.5100
     22 C22       -11.8852   -2.0423   57.5357 C.ar    1  ZINC001105194920    0.4200
     23 N23       -10.9412   -1.8696   56.5402 N.pl3   1  ZINC001105194920   -0.8100
     24 C24        -8.0998   -1.1618   60.4243 C.3     1  ZINC001105194920    0.1100
     25 N25        -7.7957    0.4807   58.0902 N.2     1  ZINC001105194920   -0.0800
     26 N26        -7.6071    1.3776   57.1876 N.2     1  ZINC001105194920   -0.2600
     27 H27        -1.7210    3.4963   55.0165 H       1  ZINC001105194920    0.0400
     28 H28        -1.0501    2.5588   56.3727 H       1  ZINC001105194920    0.0800
     29 H29        -2.1795    1.7899   55.2320 H       1  ZINC001105194920    0.0400
     30 H30        -4.0837    4.1539   55.1268 H       1  ZINC001105194920    0.0600
     31 H31        -4.5280    2.4407   55.3165 H       1  ZINC001105194920    0.0500
     32 H32        -4.8808    5.8458   56.7321 H       1  ZINC001105194920    0.0700
     33 H33        -5.7798    5.3542   58.1875 H       1  ZINC001105194920    0.0500
     34 H34        -4.0504    4.9617   58.0348 H       1  ZINC001105194920    0.0600
     35 H35        -6.6037    4.7212   55.5125 H       1  ZINC001105194920    0.3500
     36 H36        -7.6168    4.7017   57.7503 H       1  ZINC001105194920    0.0900
     37 H37        -8.6742    4.0959   56.4529 H       1  ZINC001105194920    0.0500
     38 H38        -8.4991    3.1184   59.7281 H       1  ZINC001105194920    0.1800
     39 H39        -8.1365    0.8621   61.3253 H       1  ZINC001105194920    0.1500
     40 H40       -10.3022   -0.2684   61.5532 H       1  ZINC001105194920    0.1200
     41 H41       -10.6299    0.4145   59.9002 H       1  ZINC001105194920    0.1000
     42 H42       -14.4188   -2.5253   60.2785 H       1  ZINC001105194920    0.1800
     43 H43       -15.1302   -2.0862   57.9627 H       1  ZINC001105194920    0.1800
     44 H44       -11.2205   -1.6250   55.6441 H       1  ZINC001105194920    0.4000
     45 H45        -9.9995   -1.9930   56.7380 H       1  ZINC001105194920    0.4300
     46 H46        -7.3158   -1.4071   59.7078 H       1  ZINC001105194920    0.1100
     47 H47        -7.9181   -1.5788   61.4149 H       1  ZINC001105194920    0.1200
@<TRIPOS>BOND
     1     1     2    1
     2     1    27    1
     3     1    28    1
     4     1    29    1
     5     2     3    1
     6     3     4    1
     7     3    30    1
     8     3    31    1
     9     4     5    1
    10     4     6    1
    11     4     7    1
    12     6    32    1
    13     6    33    1
    14     6    34    1
    15     7     8    1
    16     7    35    1
    17     8     9    1
    18     8    36    1
    19     8    37    1
    20     9    26    1
    21     9    10    2
    22    10    11    1
    23    10    38    1
    24    11    12    1
    25    11    25    1
    26    12    24    1
    27    12    13    1
    28    12    39    1
    29    13    14    1
    30    13    40    1
    31    13    41    1
    32    14    15   am
    33    14    24    1
    34    15    16    2
    35    15    17    1
    36    17    22   ar
    37    17    18   ar
    38    18    19   ar
    39    19    20   ar
    40    19    42    1
    41    20    21   ar
    42    20    43    1
    43    21    22   ar
    44    22    23    1
    45    23    44    1
    46    23    45    1
    47    24    46    1
    48    24    47    1
    49    25    26    2
@<TRIPOS>SUBSTRUCTURE
     1 ZINC001105194920        1 TEMP              0 ****  ****    0 ROOT


##########                                Name:    ZINC000772422035
##########                DOCK_Rotatable_Bonds:                  10
##########                         Heavy_Atoms:                  25
##########                    Molecular_Weight:             348.399
##########                DOCK_Rotatable_Bonds:                  10
##########                       Formal_Charge:          0.00999987
##########                     HBond_Acceptors:                   7
##########                        HBond_Donors:                   0
##########                         Heavy_Atoms:                  25
##########                          Grid_Score:          -29.960186
##########                     Grid_vdw_energy:          -29.976330
##########                      Grid_es_energy:            0.016144
##########           Internal_energy_repulsive:           16.385534

@<TRIPOS>MOLECULE
ZINC000772422035
 49 50 1 0 0
SMALL
USER_CHARGES


@<TRIPOS>ATOM
      1 C1        -11.9951   -2.4990   59.7407 C.3     1  ZINC000772422035    0.0300
      2 O2        -10.6541   -2.2587   60.1721 O.3     1  ZINC000772422035   -0.3900
      3 C3         -9.9203   -1.3735   59.3236 C.3     1  ZINC000772422035    0.0600
      4 C4         -8.5070   -1.1889   59.8796 C.3     1  ZINC000772422035    0.0700
      5 O5         -7.7733   -0.3033   59.0314 O.3     1  ZINC000772422035   -0.3000
      6 C6         -8.0921    1.0140   59.0933 C.ar    1  ZINC000772422035    0.3300
      7 C7         -7.5860    1.8895   58.1414 C.ar    1  ZINC000772422035   -0.1700
      8 C8         -7.9189    3.2310   58.2157 C.ar    1  ZINC000772422035   -0.0200
      9 C9         -7.3909    4.2134   57.2021 C.3     1  ZINC000772422035    0.1100
     10 O10        -7.3691    3.5908   55.8905 O.3     1  ZINC000772422035   -0.3500
     11 C11        -8.5515    3.2298   55.3676 C.2     1  ZINC000772422035    0.4700
     12 O12        -9.5632    3.7901   55.7176 O.2     1  ZINC000772422035   -0.5000
     13 C13        -8.6171    2.1257   54.3441 C.3     1  ZINC000772422035   -0.1100
     14 C14        -8.1713    2.6647   52.9833 C.3     1  ZINC000772422035    0.0000
     15 H15        -7.4591    3.4768   53.1298 H       1  ZINC000772422035    0.1000
     16 C16        -9.3889    3.1861   52.2174 C.3     1  ZINC000772422035   -0.1500
     17 C17        -7.5175    1.5593   52.1948 C.2     1  ZINC000772422035   -0.2000
     18 C18        -6.3691    1.6124   51.4786 C.2     1  ZINC000772422035   -0.0200
     19 C19        -5.4694    2.8086   51.3035 C.3     1  ZINC000772422035   -0.0800
     20 O20        -6.1909    0.3908   50.9562 O.3     1  ZINC000772422035    0.1000
     21 N21        -7.0818   -0.3627   51.2735 N.2     1  ZINC000772422035   -0.3600
     22 C22        -7.9576    0.2251   52.0366 C.2     1  ZINC000772422035    0.0300
     23 C23        -9.1996   -0.3918   52.6263 C.3     1  ZINC000772422035   -0.0800
     24 C24        -8.7504    3.6507   59.2446 C.ar    1  ZINC000772422035   -0.1900
     25 C25        -9.2170    2.7246   60.1564 C.ar    1  ZINC000772422035    0.1400
     26 N26        -8.8865    1.4512   60.0564 N.ar    1  ZINC000772422035   -0.5300
     27 H27       -12.4844   -3.1800   60.4371 H       1  ZINC000772422035    0.0900
     28 H28       -12.5414   -1.5563   59.7101 H       1  ZINC000772422035    0.0400
     29 H29       -11.9824   -2.9441   58.7458 H       1  ZINC000772422035    0.0400
     30 H30        -9.8638   -1.7956   58.3202 H       1  ZINC000772422035    0.0600
     31 H31       -10.4241   -0.4077   59.2836 H       1  ZINC000772422035    0.0700
     32 H32        -8.5636   -0.7670   60.8832 H       1  ZINC000772422035    0.0800
     33 H33        -8.0032   -2.1546   59.9194 H       1  ZINC000772422035    0.0800
     34 H34        -6.9409    1.5286   57.3540 H       1  ZINC000772422035    0.1400
     35 H35        -8.0362    5.0914   57.1768 H       1  ZINC000772422035    0.0900
     36 H36        -6.3802    4.5131   57.4789 H       1  ZINC000772422035    0.0900
     37 H37        -7.9587    1.3111   54.6456 H       1  ZINC000772422035    0.1100
     38 H38        -9.6405    1.7578   54.2715 H       1  ZINC000772422035    0.1100
     39 H39       -10.1546    2.4112   52.1815 H       1  ZINC000772422035    0.0600
     40 H40        -9.7863    4.0664   52.7227 H       1  ZINC000772422035    0.0800
     41 H41        -9.0932    3.4522   51.2026 H       1  ZINC000772422035    0.0600
     42 H42        -4.7791    2.8701   52.1449 H       1  ZINC000772422035    0.0900
     43 H43        -4.9046    2.7059   50.3769 H       1  ZINC000772422035    0.0900
     44 H44        -6.0737    3.7148   51.2622 H       1  ZINC000772422035    0.0900
     45 H45        -8.9838   -0.7526   53.6318 H       1  ZINC000772422035    0.0800
     46 H46        -9.9910    0.3565   52.6708 H       1  ZINC000772422035    0.0800
     47 H47        -9.5226   -1.2254   52.0026 H       1  ZINC000772422035    0.0800
     48 H48        -9.0292    4.6905   59.3315 H       1  ZINC000772422035    0.1400
     49 H49        -9.8644    3.0460   60.9589 H       1  ZINC000772422035    0.1700
@<TRIPOS>BOND
     1     1     2    1
     2     1    27    1
     3     1    28    1
     4     1    29    1
     5     2     3    1
     6     3     4    1
     7     3    30    1
     8     3    31    1
     9     4     5    1
    10     4    32    1
    11     4    33    1
    12     5     6    1
    13     6    26   ar
    14     6     7   ar
    15     7     8   ar
    16     7    34    1
    17     8     9    1
    18     8    24   ar
    19     9    10    1
    20     9    35    1
    21     9    36    1
    22    10    11    1
    23    11    12    2
    24    11    13    1
    25    13    14    1
    26    13    37    1
    27    13    38    1
    28    14    15    1
    29    14    16    1
    30    14    17    1
    31    16    39    1
    32    16    40    1
    33    16    41    1
    34    17    22    1
    35    17    18    2
    36    18    19    1
    37    18    20    1
    38    19    42    1
    39    19    43    1
    40    19    44    1
    41    20    21    1
    42    21    22    2
    43    22    23    1
    44    23    45    1
    45    23    46    1
    46    23    47    1
    47    24    25   ar
    48    24    48    1
    49    25    26   ar
    50    25    49    1
@<TRIPOS>SUBSTRUCTURE
     1 ZINC000772422035        1 TEMP              0 ****  ****    0 ROOT


##########                                Name:    ZINC000477589488
##########                DOCK_Rotatable_Bonds:                   6
##########                         Heavy_Atoms:                  32
##########                    Molecular_Weight:             423.517
##########                DOCK_Rotatable_Bonds:                   6
##########                       Formal_Charge:        -8.19564e-07
##########                     HBond_Acceptors:                   6
##########                        HBond_Donors:                   1
##########                         Heavy_Atoms:                  32
##########                          Grid_Score:          -29.958797
##########                     Grid_vdw_energy:          -29.632940
##########                      Grid_es_energy:           -0.325858
##########           Internal_energy_repulsive:           24.334179

@<TRIPOS>MOLECULE
ZINC000477589488
 57 61 1 0 0
SMALL
USER_CHARGES


@<TRIPOS>ATOM
      1 O1        -11.6435   -2.3613   54.4530 O.2     1  ZINC000477589488   -0.5800
      2 C2        -11.6018   -1.1835   54.7522 C.2     1  ZINC000477589488    0.7100
      3 N3        -11.9369   -0.7922   55.9975 N.am    1  ZINC000477589488   -0.7400
      4 C4        -12.3572   -1.7854   56.9891 C.3     1  ZINC000477589488    0.2500
      5 H5        -11.6362   -2.6025   57.0133 H       1  ZINC000477589488    0.1100
      6 C6        -13.7145   -2.3240   56.6165 C.ar    1  ZINC000477589488   -0.0900
      7 C7        -14.5495   -1.5870   55.7977 C.ar    1  ZINC000477589488   -0.1000
      8 C8        -15.7945   -2.0810   55.4559 C.ar    1  ZINC000477589488   -0.1200
      9 C9        -16.2042   -3.3123   55.9325 C.ar    1  ZINC000477589488   -0.1200
     10 C10       -15.3688   -4.0497   56.7505 C.ar    1  ZINC000477589488   -0.1200
     11 C11       -14.1220   -3.5576   57.0889 C.ar    1  ZINC000477589488   -0.1000
     12 C12       -12.4293   -1.1388   58.3485 C.ar    1  ZINC000477589488   -0.0700
     13 C13       -11.2998   -1.1235   59.1840 C.ar    1  ZINC000477589488   -0.0400
     14 C14       -10.0851   -1.7036   58.7800 C.ar    1  ZINC000477589488   -0.1100
     15 C15        -9.0117   -1.6695   59.6158 C.ar    1  ZINC000477589488   -0.1100
     16 C16        -9.0976   -1.0674   60.8700 C.ar    1  ZINC000477589488   -0.1100
     17 C17       -10.2572   -0.4960   61.2951 C.ar    1  ZINC000477589488   -0.1100
     18 C18       -11.3870   -0.5107   60.4592 C.ar    1  ZINC000477589488   -0.0500
     19 C19       -12.6012    0.0693   60.8632 C.ar    1  ZINC000477589488   -0.1000
     20 C20       -13.6745    0.0364   60.0265 C.ar    1  ZINC000477589488   -0.1100
     21 C21       -13.5874   -0.5616   58.7710 C.ar    1  ZINC000477589488   -0.1100
     22 N22       -11.2151   -0.2699   53.8399 N.am    1  ZINC000477589488   -0.6300
     23 C23       -11.1460    1.1584   54.1842 C.3     1  ZINC000477589488    0.1300
     24 C24        -9.7679    1.6910   53.7778 C.3     1  ZINC000477589488    0.0500
     25 N25        -9.5243    1.3807   52.3628 N.3     1  ZINC000477589488   -0.4700
     26 C26        -8.3570    1.9881   51.9132 C.ar    1  ZINC000477589488    0.2500
     27 C27        -7.1292    1.3452   52.0657 C.ar    1  ZINC000477589488   -0.1300
     28 C28        -5.9955    1.9931   51.6008 C.ar    1  ZINC000477589488   -0.0900
     29 C29        -6.1517    3.2402   51.0127 C.ar    1  ZINC000477589488    0.0200
     30 N30        -7.3523    3.7748   50.9094 N.ar    1  ZINC000477589488   -0.2200
     31 N31        -8.4070    3.1783   51.3326 N.ar    1  ZINC000477589488   -0.2800
     32 C32        -9.4844   -0.0700   52.1346 C.3     1  ZINC000477589488    0.0400
     33 C33       -10.8452   -0.6754   52.4754 C.3     1  ZINC000477589488    0.1200
     34 H34       -11.8997    0.1468   56.2374 H       1  ZINC000477589488    0.3900
     35 H35       -14.2295   -0.6251   55.4254 H       1  ZINC000477589488    0.1100
     36 H36       -16.4472   -1.5050   54.8168 H       1  ZINC000477589488    0.1200
     37 H37       -17.1772   -3.6979   55.6660 H       1  ZINC000477589488    0.1200
     38 H38       -15.6890   -5.0115   57.1232 H       1  ZINC000477589488    0.1200
     39 H39       -13.4693   -4.1336   57.7280 H       1  ZINC000477589488    0.1200
     40 H40       -10.0040   -2.1743   57.8113 H       1  ZINC000477589488    0.1300
     41 H41        -8.0795   -2.1160   59.3029 H       1  ZINC000477589488    0.1300
     42 H42        -8.2308   -1.0544   61.5141 H       1  ZINC000477589488    0.1300
     43 H43       -10.3090   -0.0337   62.2698 H       1  ZINC000477589488    0.1300
     44 H44       -12.6827    0.5385   61.8325 H       1  ZINC000477589488    0.1300
     45 H45       -14.6068    0.4827   60.3396 H       1  ZINC000477589488    0.1300
     46 H46       -14.4539   -0.5737   58.1264 H       1  ZINC000477589488    0.1200
     47 H47       -11.9222    1.7026   53.6461 H       1  ZINC000477589488    0.0800
     48 H48       -11.2848    1.2833   55.2581 H       1  ZINC000477589488    0.1100
     49 H49        -9.7376    2.7708   53.9238 H       1  ZINC000477589488    0.1000
     50 H50        -9.0003    1.2190   54.3911 H       1  ZINC000477589488    0.0600
     51 H51        -7.0635    0.3732   52.5319 H       1  ZINC000477589488    0.1500
     52 H52        -5.0192    1.5408   51.6939 H       1  ZINC000477589488    0.1500
     53 H53        -5.2896    3.7732   50.6399 H       1  ZINC000477589488    0.1700
     54 H54        -9.2487   -0.2673   51.0888 H       1  ZINC000477589488    0.1000
     55 H55        -8.7208   -0.5174   52.7707 H       1  ZINC000477589488    0.0600
     56 H56       -10.7870   -1.7623   52.4178 H       1  ZINC000477589488    0.0800
     57 H57       -11.5951   -0.3084   51.7747 H       1  ZINC000477589488    0.0900
@<TRIPOS>BOND
     1     1     2    2
     2     2     3   am
     3     2    22   am
     4     3     4    1
     5     3    34    1
     6     4     5    1
     7     4     6    1
     8     4    12    1
     9     6    11   ar
    10     6     7   ar
    11     7     8   ar
    12     7    35    1
    13     8     9   ar
    14     8    36    1
    15     9    10   ar
    16     9    37    1
    17    10    11   ar
    18    10    38    1
    19    11    39    1
    20    12    21   ar
    21    12    13   ar
    22    13    18   ar
    23    13    14   ar
    24    14    15   ar
    25    14    40    1
    26    15    16   ar
    27    15    41    1
    28    16    17   ar
    29    16    42    1
    30    17    18   ar
    31    17    43    1
    32    18    19   ar
    33    19    20   ar
    34    19    44    1
    35    20    21   ar
    36    20    45    1
    37    21    46    1
    38    22    33    1
    39    22    23    1
    40    23    24    1
    41    23    47    1
    42    23    48    1
    43    24    25    1
    44    24    49    1
    45    24    50    1
    46    25    26    1
    47    25    32    1
    48    26    31   ar
    49    26    27   ar
    50    27    28   ar
    51    27    51    1
    52    28    29   ar
    53    28    52    1
    54    29    30   ar
    55    29    53    1
    56    30    31   ar
    57    32    33    1
    58    32    54    1
    59    32    55    1
    60    33    56    1
    61    33    57    1
@<TRIPOS>SUBSTRUCTURE
     1 ZINC000477589488        1 TEMP              0 ****  ****    0 ROOT


##########                                Name:    ZINC000573650873
##########                DOCK_Rotatable_Bonds:                  10
##########                         Heavy_Atoms:                  28
##########                    Molecular_Weight:             418.843
##########                DOCK_Rotatable_Bonds:                  10
##########                       Formal_Charge:          -0.0500001
##########                     HBond_Acceptors:                   9
##########                        HBond_Donors:                   1
##########                         Heavy_Atoms:                  28
##########                          Grid_Score:          -29.958246
##########                     Grid_vdw_energy:          -29.326864
##########                      Grid_es_energy:           -0.631383
##########           Internal_energy_repulsive:           13.384281

@<TRIPOS>MOLECULE
ZINC000573650873
 50 51 1 0 0
SMALL
USER_CHARGES


@<TRIPOS>ATOM
      1 C1          1.5786    0.6834   49.3412 C.3     1  ZINC000573650873   -0.1400
      2 C2          1.0798    1.9326   48.6120 C.3     1  ZINC000573650873    0.0100
      3 C3          2.2712    2.8220   48.2506 C.3     1  ZINC000573650873   -0.1400
      4 C4          0.3465    1.5186   47.3345 C.3     1  ZINC000573650873   -0.1500
      5 C5          0.1375    2.6946   49.5077 C.2     1  ZINC000573650873   -0.0100
      6 C6          0.2102    2.7988   50.8549 C.2     1  ZINC000573650873   -0.1800
      7 C7         -0.9032    3.6165   51.1955 C.2     1  ZINC000573650873   -0.0300
      8 C8         -1.3047    4.0545   52.5545 C.2     1  ZINC000573650873    0.6000
      9 O9         -0.6300    4.8671   53.1550 O.2     1  ZINC000573650873   -0.5100
     10 N10        -2.4182    3.5513   53.1232 N.am    1  ZINC000573650873   -0.5900
     11 C11        -3.2319    2.5715   52.3991 C.3     1  ZINC000573650873    0.1200
     12 C12        -4.4306    3.2763   51.7609 C.3     1  ZINC000573650873   -0.1000
     13 C13        -5.6766    2.4626   51.9983 C.ar    1  ZINC000573650873   -0.0800
     14 C14        -5.8432    1.2504   51.3549 C.ar    1  ZINC000573650873   -0.1000
     15 C15        -6.9857    0.5036   51.5722 C.ar    1  ZINC000573650873   -0.1100
     16 C16        -7.9627    0.9694   52.4338 C.ar    1  ZINC000573650873   -0.0400
     17 Cl17       -9.3979    0.0317   52.7077 Cl      1  ZINC000573650873   -0.0700
     18 C18        -7.7955    2.1827   53.0775 C.ar    1  ZINC000573650873   -0.1100
     19 C19        -6.6499    2.9259   52.8636 C.ar    1  ZINC000573650873   -0.1000
     20 C20        -2.8149    3.9840   54.4654 C.3     1  ZINC000573650873    0.0700
     21 C21        -2.3164    2.9694   55.4966 C.3     1  ZINC000573650873    0.0600
     22 H22        -2.7315    1.9874   55.2700 H       1  ZINC000573650873    0.1400
     23 O23        -0.8896    2.9057   55.4509 O.3     1  ZINC000573650873   -0.5200
     24 C24        -2.7632    3.4017   56.8946 C.3     1  ZINC000573650873    0.4300
     25 F25        -2.2602    4.6775   57.1712 F       1  ZINC000573650873   -0.1700
     26 F26        -4.1608    3.4295   56.9496 F       1  ZINC000573650873   -0.1700
     27 F27        -2.2772    2.4934   57.8411 F       1  ZINC000573650873   -0.1800
     28 N28        -1.5016    3.9049   50.0666 N.2     1  ZINC000573650873   -0.3400
     29 O29        -0.9320    3.4054   49.1243 O.3     1  ZINC000573650873    0.1300
     30 H30         2.1011    0.9783   50.2513 H       1  ZINC000573650873    0.0600
     31 H31         0.7298    0.0498   49.5986 H       1  ZINC000573650873    0.0600
     32 H32         2.2601    0.1322   48.6933 H       1  ZINC000573650873    0.0700
     33 H33         2.9527    2.2708   47.6028 H       1  ZINC000573650873    0.0700
     34 H34         1.9158    3.7118   47.7310 H       1  ZINC000573650873    0.0600
     35 H35         2.7937    3.1169   49.1606 H       1  ZINC000573650873    0.0600
     36 H36        -0.5023    0.8850   47.5919 H       1  ZINC000573650873    0.0600
     37 H37        -0.0089    2.4084   46.8150 H       1  ZINC000573650873    0.0600
     38 H38         1.0281    0.9674   46.6867 H       1  ZINC000573650873    0.0700
     39 H39         0.9429    2.3624   51.5176 H       1  ZINC000573650873    0.1800
     40 H40        -2.6294    2.1029   51.6211 H       1  ZINC000573650873    0.0900
     41 H41        -3.5859    1.8093   53.0932 H       1  ZINC000573650873    0.1000
     42 H42        -4.5511    4.2637   52.2065 H       1  ZINC000573650873    0.0800
     43 H43        -4.2628    3.3796   50.6888 H       1  ZINC000573650873    0.0800
     44 H44        -5.0805    0.8870   50.6819 H       1  ZINC000573650873    0.1300
     45 H45        -7.1159   -0.4432   51.0692 H       1  ZINC000573650873    0.1300
     46 H46        -8.5580    2.5470   53.7500 H       1  ZINC000573650873    0.1300
     47 H47        -6.5191    3.8728   53.3663 H       1  ZINC000573650873    0.1300
     48 H48        -2.3787    4.9604   54.6761 H       1  ZINC000573650873    0.1000
     49 H49        -3.9015    4.0524   54.5189 H       1  ZINC000573650873    0.1200
     50 H50        -0.5375    2.5700   54.6151 H       1  ZINC000573650873    0.3900
@<TRIPOS>BOND
     1     1     2    1
     2     1    30    1
     3     1    31    1
     4     1    32    1
     5     2     3    1
     6     2     4    1
     7     2     5    1
     8     3    33    1
     9     3    34    1
    10     3    35    1
    11     4    36    1
    12     4    37    1
    13     4    38    1
    14     5    29    1
    15     5     6    2
    16     6     7    1
    17     6    39    1
    18     7     8    1
    19     7    28    2
    20     8     9    2
    21     8    10   am
    22    10    11    1
    23    10    20    1
    24    11    12    1
    25    11    40    1
    26    11    41    1
    27    12    13    1
    28    12    42    1
    29    12    43    1
    30    13    19   ar
    31    13    14   ar
    32    14    15   ar
    33    14    44    1
    34    15    16   ar
    35    15    45    1
    36    16    17    1
    37    16    18   ar
    38    18    19   ar
    39    18    46    1
    40    19    47    1
    41    20    21    1
    42    20    48    1
    43    20    49    1
    44    21    22    1
    45    21    23    1
    46    21    24    1
    47    23    50    1
    48    24    25    1
    49    24    26    1
    50    24    27    1
    51    28    29    1
@<TRIPOS>SUBSTRUCTURE
     1 ZINC000573650873        1 TEMP              0 ****  ****    0 ROOT


##########                                Name:    ZINC000426805817
##########                DOCK_Rotatable_Bonds:                   6
##########                         Heavy_Atoms:                  26
##########                    Molecular_Weight:             412.286
##########                DOCK_Rotatable_Bonds:                   6
##########                       Formal_Charge:          -0.0100001
##########                     HBond_Acceptors:                   5
##########                        HBond_Donors:                   4
##########                         Heavy_Atoms:                  26
##########                          Grid_Score:          -29.934616
##########                     Grid_vdw_energy:          -25.248129
##########                      Grid_es_energy:           -4.686487
##########           Internal_energy_repulsive:            6.922609

@<TRIPOS>MOLECULE
ZINC000426805817
 44 47 1 0 0
SMALL
USER_CHARGES


@<TRIPOS>ATOM
      1 O1        -16.2171    0.5840   62.2260 O.co2   1  ZINC000426805817   -0.6300
      2 C2        -15.9308    0.1863   61.1096 C.2     1  ZINC000426805817    0.5000
      3 O3        -16.8058    0.0313   60.2747 O.co2   1  ZINC000426805817   -0.6800
      4 C4        -14.4949   -0.1080   60.7596 C.3     1  ZINC000426805817   -0.0500
      5 H5        -14.4264   -0.3820   59.7068 H       1  ZINC000426805817    0.1300
      6 C6        -13.6415    1.1350   61.0197 C.3     1  ZINC000426805817   -0.0500
      7 C7        -12.2564    0.9180   60.4671 C.2     1  ZINC000426805817   -0.1900
      8 C8        -11.9011    0.9356   59.1728 C.2     1  ZINC000426805817    0.0500
      9 N9        -10.5587    0.6988   59.0542 N.pl3   1  ZINC000426805817   -0.5900
     10 C10       -10.0029    0.5182   60.3015 C.ar    1  ZINC000426805817    0.1100
     11 C11        -8.7109    0.2549   60.7433 C.ar    1  ZINC000426805817   -0.1200
     12 C12        -8.4588    0.1232   62.0912 C.ar    1  ZINC000426805817   -0.0700
     13 C13        -9.4841    0.2507   63.0193 C.ar    1  ZINC000426805817   -0.1100
     14 Br14       -9.1110    0.0654   64.8638 Br      1  ZINC000426805817   -0.0400
     15 C15       -10.7708    0.5119   62.6038 C.ar    1  ZINC000426805817   -0.0400
     16 C16       -11.0410    0.6539   61.2413 C.ar    1  ZINC000426805817   -0.1000
     17 N17       -14.0069   -1.2191   61.5874 N.4     1  ZINC000426805817   -0.4800
     18 H18       -13.0028   -1.2804   61.5101 H       1  ZINC000426805817    0.4000
     19 H19       -14.2609   -1.0578   62.5505 H       1  ZINC000426805817    0.4200
     20 C20       -14.6112   -2.4760   61.1256 C.3     1  ZINC000426805817    0.0400
     21 C21       -14.3391   -2.6532   59.6540 C.ar    1  ZINC000426805817   -0.1600
     22 C22       -13.0319   -2.7822   59.1968 C.ar    1  ZINC000426805817    0.1100
     23 N23       -11.8051   -2.7877   59.8218 N.pl3   1  ZINC000426805817   -0.5900
     24 C24       -10.8115   -2.9494   58.8949 C.2     1  ZINC000426805817    0.0600
     25 C25       -11.3435   -3.0519   57.6668 C.2     1  ZINC000426805817   -0.2000
     26 C26       -12.7966   -2.9475   57.8194 C.ar    1  ZINC000426805817   -0.1100
     27 C27       -13.8708   -2.9804   56.9284 C.ar    1  ZINC000426805817   -0.0400
     28 C28       -15.1471   -2.8517   57.3995 C.ar    1  ZINC000426805817   -0.1500
     29 C29       -15.3848   -2.6937   58.7578 C.ar    1  ZINC000426805817   -0.0700
     30 H30       -14.0966    1.9968   60.5316 H       1  ZINC000426805817    0.1200
     31 H31       -13.5804    1.3156   62.0929 H       1  ZINC000426805817    0.0900
     32 H32       -12.5751    1.1107   58.3474 H       1  ZINC000426805817    0.1700
     33 H33       -10.0711    0.6634   58.2163 H       1  ZINC000426805817    0.4200
     34 H34        -7.9060    0.1534   60.0303 H       1  ZINC000426805817    0.1300
     35 H35        -7.4538   -0.0817   62.4295 H       1  ZINC000426805817    0.1400
     36 H36       -11.5658    0.6106   63.3280 H       1  ZINC000426805817    0.1400
     37 H37       -14.1799   -3.3109   61.6780 H       1  ZINC000426805817    0.1500
     38 H38       -15.6875   -2.4455   61.2950 H       1  ZINC000426805817    0.1300
     39 H39       -11.6658   -2.6909   60.7769 H       1  ZINC000426805817    0.4300
     40 H40        -9.7556   -2.9885   59.1184 H       1  ZINC000426805817    0.1800
     41 H41       -10.8027   -3.1857   56.7415 H       1  ZINC000426805817    0.1500
     42 H42       -13.6937   -3.1067   55.8705 H       1  ZINC000426805817    0.1300
     43 H43       -15.9778   -2.8772   56.7097 H       1  ZINC000426805817    0.1300
     44 H44       -16.3991   -2.5933   59.1148 H       1  ZINC000426805817    0.1300
@<TRIPOS>BOND
     1     1     2   ar
     2     2     3   ar
     3     2     4    1
     4     4     5    1
     5     4     6    1
     6     4    17    1
     7     6     7    1
     8     6    30    1
     9     6    31    1
    10     7    16    1
    11     7     8    2
    12     8     9    1
    13     8    32    1
    14     9    10    1
    15     9    33    1
    16    10    16   ar
    17    10    11   ar
    18    11    12   ar
    19    11    34    1
    20    12    13   ar
    21    12    35    1
    22    13    14    1
    23    13    15   ar
    24    15    16   ar
    25    15    36    1
    26    17    18    1
    27    17    19    1
    28    17    20    1
    29    20    21    1
    30    20    37    1
    31    20    38    1
    32    21    29   ar
    33    21    22   ar
    34    22    26   ar
    35    22    23    1
    36    23    24    1
    37    23    39    1
    38    24    25    2
    39    24    40    1
    40    25    26    1
    41    25    41    1
    42    26    27   ar
    43    27    28   ar
    44    27    42    1
    45    28    29   ar
    46    28    43    1
    47    29    44    1
@<TRIPOS>SUBSTRUCTURE
     1 ZINC000426805817        1 TEMP              0 ****  ****    0 ROOT


##########                                Name:    ZINC001386869844
##########                DOCK_Rotatable_Bonds:                   9
##########                         Heavy_Atoms:                  25
##########                    Molecular_Weight:             345.485
##########                DOCK_Rotatable_Bonds:                   9
##########                       Formal_Charge:          -0.0300003
##########                     HBond_Acceptors:                   5
##########                        HBond_Donors:                   2
##########                         Heavy_Atoms:                  25
##########                          Grid_Score:          -29.924770
##########                     Grid_vdw_energy:          -29.466637
##########                      Grid_es_energy:           -0.458134
##########           Internal_energy_repulsive:           29.808548

@<TRIPOS>MOLECULE
ZINC001386869844
 56 58 1 0 0
SMALL
USER_CHARGES


@<TRIPOS>ATOM
      1 C1         -5.5038    2.0159   50.3417 C.3     1  ZINC001386869844    0.0600
      2 N2         -5.0688    2.6749   51.5757 N.am    1  ZINC001386869844   -0.6200
      3 C3         -3.7367    3.2797   51.6526 C.3     1  ZINC001386869844    0.1100
      4 C4         -2.6895    2.2685   51.1820 C.3     1  ZINC001386869844    0.1000
      5 N5         -2.0330    2.7724   49.9731 N.am    1  ZINC001386869844   -0.7300
      6 C6         -0.7821    3.2695   50.0429 C.2     1  ZINC001386869844    0.5200
      7 O7         -0.2021    3.3044   51.1073 O.2     1  ZINC001386869844   -0.5300
      8 C8         -0.1068    3.7878   48.7993 C.3     1  ZINC001386869844   -0.1300
      9 C9          1.0924    2.8994   48.4624 C.3     1  ZINC001386869844   -0.0100
     10 C10         1.3841    2.9835   46.9629 C.3     1  ZINC001386869844   -0.1500
     11 C11         2.3162    3.3754   49.2477 C.3     1  ZINC001386869844   -0.1600
     12 C12         0.7759    1.4509   48.8400 C.3     1  ZINC001386869844   -0.1500
     13 C13         1.5909    0.8217   49.9718 C.3     1  ZINC001386869844   -0.1900
     14 C14         1.8331    0.3912   48.5229 C.3     1  ZINC001386869844   -0.1800
     15 C15        -5.8941    2.7247   52.6400 C.2     1  ZINC001386869844    0.5900
     16 O16        -5.5327    3.2719   53.6651 O.2     1  ZINC001386869844   -0.5200
     17 C17        -7.2278    2.1191   52.5628 C.2     1  ZINC001386869844   -0.0600
     18 C18        -8.3455    2.6803   51.9783 C.2     1  ZINC001386869844   -0.0900
     19 C19        -9.3863    1.7680   52.1320 C.2     1  ZINC001386869844   -0.1700
     20 C20        -8.9017    0.6846   52.7953 C.2     1  ZINC001386869844    0.0500
     21 C21        -9.7343   -0.5228   53.1557 C.3     1  ZINC001386869844   -0.0600
     22 C22       -11.2150   -0.1422   53.0391 C.3     1  ZINC001386869844   -0.1100
     23 C23       -11.4673    0.5217   51.6827 C.3     1  ZINC001386869844   -0.1200
     24 C24       -10.8130    1.9085   51.6631 C.3     1  ZINC001386869844   -0.0500
     25 N25        -7.5909    0.8844   53.0551 N.pl3   1  ZINC001386869844   -0.5400
     26 H26        -5.3280    0.9431   50.4213 H       1  ZINC001386869844    0.0600
     27 H27        -6.5671    2.1994   50.1871 H       1  ZINC001386869844    0.0800
     28 H28        -4.9399    2.4148   49.4985 H       1  ZINC001386869844    0.0900
     29 H29        -3.5272    3.5669   52.6831 H       1  ZINC001386869844    0.1000
     30 H30        -3.7014    4.1630   51.0150 H       1  ZINC001386869844    0.0900
     31 H31        -3.1754    1.3180   50.9621 H       1  ZINC001386869844    0.0700
     32 H32        -1.9460    2.1239   51.9657 H       1  ZINC001386869844    0.0700
     33 H33        -2.4985    2.7482   49.1224 H       1  ZINC001386869844    0.4000
     34 H34        -0.8135    3.7742   47.9696 H       1  ZINC001386869844    0.0900
     35 H35         0.2340    4.8090   48.9696 H       1  ZINC001386869844    0.0900
     36 H36         1.6095    4.0154   46.6939 H       1  ZINC001386869844    0.0800
     37 H37         2.2385    2.3506   46.7230 H       1  ZINC001386869844    0.0500
     38 H38         0.5122    2.6444   46.4035 H       1  ZINC001386869844    0.0500
     39 H39         2.1084    3.3155   50.3159 H       1  ZINC001386869844    0.0500
     40 H40         3.1706    2.7425   49.0077 H       1  ZINC001386869844    0.0500
     41 H41         2.5416    4.4073   48.9787 H       1  ZINC001386869844    0.0800
     42 H42        -0.2707    1.1598   48.7515 H       1  ZINC001386869844    0.1000
     43 H43         2.3524    1.4397   50.4474 H       1  ZINC001386869844    0.1000
     44 H44         1.0803    0.1165   50.6277 H       1  ZINC001386869844    0.0900
     45 H45         1.4818   -0.5971   48.2263 H       1  ZINC001386869844    0.0900
     46 H46         2.7539    0.7259   48.0454 H       1  ZINC001386869844    0.0900
     47 H47        -8.4021    3.6441   51.4941 H       1  ZINC001386869844    0.1500
     48 H48        -9.5106   -1.3406   52.4706 H       1  ZINC001386869844    0.0800
     49 H49        -9.5135   -0.8290   54.1783 H       1  ZINC001386869844    0.0800
     50 H50       -11.8283   -1.0391   53.1241 H       1  ZINC001386869844    0.0700
     51 H51       -11.4753    0.5526   53.8375 H       1  ZINC001386869844    0.0700
     52 H52       -11.0387   -0.0935   50.8916 H       1  ZINC001386869844    0.0600
     53 H53       -12.5406    0.6240   51.5223 H       1  ZINC001386869844    0.0700
     54 H54       -11.3543    2.5793   52.3301 H       1  ZINC001386869844    0.0700
     55 H55       -10.8284    2.3075   50.6488 H       1  ZINC001386869844    0.0700
     56 H56        -7.0039    0.2631   53.5137 H       1  ZINC001386869844    0.4200
@<TRIPOS>BOND
     1     1     2    1
     2     1    26    1
     3     1    27    1
     4     1    28    1
     5     2     3    1
     6     2    15   am
     7     3     4    1
     8     3    29    1
     9     3    30    1
    10     4     5    1
    11     4    31    1
    12     4    32    1
    13     5     6   am
    14     5    33    1
    15     6     7    2
    16     6     8    1
    17     8     9    1
    18     8    34    1
    19     8    35    1
    20     9    10    1
    21     9    11    1
    22     9    12    1
    23    10    36    1
    24    10    37    1
    25    10    38    1
    26    11    39    1
    27    11    40    1
    28    11    41    1
    29    12    14    1
    30    12    13    1
    31    12    42    1
    32    13    14    1
    33    13    43    1
    34    13    44    1
    35    14    45    1
    36    14    46    1
    37    15    16    2
    38    15    17    1
    39    17    25    1
    40    17    18    2
    41    18    19    1
    42    18    47    1
    43    19    24    1
    44    19    20    2
    45    20    21    1
    46    20    25    1
    47    21    22    1
    48    21    48    1
    49    21    49    1
    50    22    23    1
    51    22    50    1
    52    22    51    1
    53    23    24    1
    54    23    52    1
    55    23    53    1
    56    24    54    1
    57    24    55    1
    58    25    56    1
@<TRIPOS>SUBSTRUCTURE
     1 ZINC001386869844        1 TEMP              0 ****  ****    0 ROOT


##########                                Name:    ZINC001015666108
##########                DOCK_Rotatable_Bonds:                   7
##########                         Heavy_Atoms:                  25
##########                    Molecular_Weight:             346.429
##########                DOCK_Rotatable_Bonds:                   7
##########                       Formal_Charge:          -0.0199997
##########                     HBond_Acceptors:                   7
##########                        HBond_Donors:                   1
##########                         Heavy_Atoms:                  25
##########                          Grid_Score:          -29.917274
##########                     Grid_vdw_energy:          -29.960413
##########                      Grid_es_energy:            0.043139
##########           Internal_energy_repulsive:           16.907784

@<TRIPOS>MOLECULE
ZINC001015666108
 51 53 1 0 0
SMALL
USER_CHARGES


@<TRIPOS>ATOM
      1 C1        -15.4459   -2.2059   60.2116 C.3     1  ZINC001015666108   -0.1400
      2 C2        -16.2780   -2.2812   58.9298 C.3     1  ZINC001015666108   -0.0700
      3 C3        -15.6221   -3.2303   57.9602 C.2     1  ZINC001015666108   -0.0700
      4 C4        -14.6869   -2.9144   57.0169 C.2     1  ZINC001015666108   -0.0900
      5 C5        -14.1361   -1.5791   56.7628 C.2     1  ZINC001015666108    0.6100
      6 O6        -14.6402   -0.6032   57.2867 O.2     1  ZINC001015666108   -0.5100
      7 N7        -13.0716   -1.4329   55.9492 N.am    1  ZINC001015666108   -0.7200
      8 C8        -12.5226   -0.0988   55.6939 C.3     1  ZINC001015666108    0.1400
      9 H9        -13.1362    0.6611   56.1778 H       1  ZINC001015666108    0.1100
     10 C10       -11.0643   -0.0131   56.1998 C.3     1  ZINC001015666108   -0.1300
     11 C11       -10.2365   -0.2787   54.9173 C.3     1  ZINC001015666108    0.0300
     12 N12       -11.0164    0.4138   53.8599 N.3     1  ZINC001015666108   -0.5100
     13 C13       -10.6760   -0.1062   52.5289 C.3     1  ZINC001015666108    0.1700
     14 H14       -10.7601   -1.1929   52.5310 H       1  ZINC001015666108    0.0900
     15 C15       -11.6378    0.4776   51.4919 C.3     1  ZINC001015666108   -0.1500
     16 C16        -9.2635    0.2877   52.1817 C.2     1  ZINC001015666108    0.1900
     17 N17        -8.7318    1.4797   52.3073 N.2     1  ZINC001015666108   -0.4800
     18 C18        -7.4629    1.3573   51.8785 C.2     1  ZINC001015666108    0.1800
     19 C19        -6.4303    2.4535   51.8235 C.3     1  ZINC001015666108    0.0000
     20 C20        -5.4965    2.2155   50.6352 C.3     1  ZINC001015666108   -0.1500
     21 C21        -7.1291    3.8047   51.6605 C.3     1  ZINC001015666108   -0.1500
     22 N22        -7.2908    0.1200   51.5207 N.2     1  ZINC001015666108   -0.3800
     23 O23        -8.3115   -0.5126   51.6924 O.3     1  ZINC001015666108    0.1000
     24 C24       -12.4412    0.1647   54.1789 C.3     1  ZINC001015666108    0.0300
     25 O25       -14.3581   -4.0458   56.3596 O.3     1  ZINC001015666108   -0.1700
     26 C26       -15.0597   -5.0707   56.8605 C.2     1  ZINC001015666108    0.0000
     27 C27       -15.8499   -4.6114   57.8559 C.2     1  ZINC001015666108   -0.2200
     28 H28       -15.9203   -1.5194   60.9129 H       1  ZINC001015666108    0.0600
     29 H29       -15.3806   -3.1967   60.6610 H       1  ZINC001015666108    0.0600
     30 H30       -14.4442   -1.8479   59.9740 H       1  ZINC001015666108    0.0500
     31 H31       -17.2797   -2.6392   59.1674 H       1  ZINC001015666108    0.0900
     32 H32       -16.3433   -1.2903   58.4804 H       1  ZINC001015666108    0.0700
     33 H33       -12.6691   -2.2109   55.5325 H       1  ZINC001015666108    0.4000
     34 H34       -10.8517    0.9794   56.5974 H       1  ZINC001015666108    0.0900
     35 H35       -10.8704   -0.7799   56.9498 H       1  ZINC001015666108    0.0800
     36 H36        -9.2400    0.1541   55.0062 H       1  ZINC001015666108    0.0800
     37 H37       -10.1760   -1.3476   54.7131 H       1  ZINC001015666108    0.0500
     38 H38       -11.5538    1.5644   51.4898 H       1  ZINC001015666108    0.0800
     39 H39       -11.3852    0.0917   50.5043 H       1  ZINC001015666108    0.0700
     40 H40       -12.6595    0.1927   51.7430 H       1  ZINC001015666108    0.0800
     41 H41        -5.8508    2.4532   52.7467 H       1  ZINC001015666108    0.1000
     42 H42        -6.0760    2.2156   49.7120 H       1  ZINC001015666108    0.0600
     43 H43        -4.7496    3.0083   50.5955 H       1  ZINC001015666108    0.0700
     44 H44        -4.9987    1.2528   50.7514 H       1  ZINC001015666108    0.0600
     45 H45        -7.7087    3.8050   50.7373 H       1  ZINC001015666108    0.0600
     46 H46        -7.7944    3.9743   52.5071 H       1  ZINC001015666108    0.0600
     47 H47        -6.3822    4.5976   51.6207 H       1  ZINC001015666108    0.0700
     48 H48       -12.7975   -0.7074   53.6307 H       1  ZINC001015666108    0.0600
     49 H49       -13.0382    1.0391   53.9193 H       1  ZINC001015666108    0.1000
     50 H50       -15.0006   -6.0962   56.5268 H       1  ZINC001015666108    0.2100
     51 H51       -16.5331   -5.1959   58.4542 H       1  ZINC001015666108    0.1600
@<TRIPOS>BOND
     1     1     2    1
     2     1    28    1
     3     1    29    1
     4     1    30    1
     5     2     3    1
     6     2    31    1
     7     2    32    1
     8     3    27    1
     9     3     4    2
    10     4     5    1
    11     4    25    1
    12     5     6    2
    13     5     7   am
    14     7     8    1
    15     7    33    1
    16     8     9    1
    17     8    24    1
    18     8    10    1
    19    10    11    1
    20    10    34    1
    21    10    35    1
    22    11    12    1
    23    11    36    1
    24    11    37    1
    25    12    13    1
    26    12    24    1
    27    13    14    1
    28    13    15    1
    29    13    16    1
    30    15    38    1
    31    15    39    1
    32    15    40    1
    33    16    23    1
    34    16    17    2
    35    17    18    1
    36    18    19    1
    37    18    22    2
    38    19    20    1
    39    19    21    1
    40    19    41    1
    41    20    42    1
    42    20    43    1
    43    20    44    1
    44    21    45    1
    45    21    46    1
    46    21    47    1
    47    22    23    1
    48    24    48    1
    49    24    49    1
    50    25    26    1
    51    26    27    2
    52    26    50    1
    53    27    51    1
@<TRIPOS>SUBSTRUCTURE
     1 ZINC001015666108        1 TEMP              0 ****  ****    0 ROOT


##########                                Name:    ZINC001362587626
##########                DOCK_Rotatable_Bonds:                   9
##########                         Heavy_Atoms:                  25
##########                    Molecular_Weight:             346.346
##########                DOCK_Rotatable_Bonds:                   9
##########                       Formal_Charge:        -4.02331e-07
##########                     HBond_Acceptors:                  10
##########                        HBond_Donors:                   2
##########                         Heavy_Atoms:                  25
##########                          Grid_Score:          -29.892942
##########                     Grid_vdw_energy:          -29.159943
##########                      Grid_es_energy:           -0.732999
##########           Internal_energy_repulsive:            8.111219

@<TRIPOS>MOLECULE
ZINC001362587626
 43 45 1 0 0
SMALL
USER_CHARGES


@<TRIPOS>ATOM
      1 C1         -2.7463    4.3769   51.9111 C.3     1  ZINC001362587626   -0.1600
      2 C2         -2.9899    3.0129   51.2623 C.3     1  ZINC001362587626    0.1300
      3 H3         -2.3696    2.2619   51.7516 H       1  ZINC001362587626    0.1200
      4 N4         -2.6449    3.0800   49.8401 N.am    1  ZINC001362587626   -0.7100
      5 C5         -1.4139    2.7182   49.4276 C.2     1  ZINC001362587626    0.5100
      6 O6         -0.5923    2.3356   50.2334 O.2     1  ZINC001362587626   -0.5000
      7 C7         -1.0584    2.7890   47.9647 C.3     1  ZINC001362587626    0.1000
      8 N8         -0.0372    1.7833   47.6612 N.pl3   1  ZINC001362587626   -0.3100
      9 C9          1.2962    1.9504   47.7357 C.2     1  ZINC001362587626    0.1600
     10 N10         1.8385    0.8107   47.3821 N.2     1  ZINC001362587626   -0.3000
     11 N11         0.8878   -0.0134   47.1050 N.2     1  ZINC001362587626   -0.0700
     12 N12        -0.2472    0.5694   47.2780 N.2     1  ZINC001362587626   -0.0700
     13 C13        -4.4421    2.6388   51.4098 C.2     1  ZINC001362587626    0.5100
     14 O14        -4.9201    1.7739   50.7062 O.2     1  ZINC001362587626   -0.5200
     15 N15        -5.2100    3.2649   52.3236 N.am    1  ZINC001362587626   -0.6600
     16 C16        -6.5602    2.9170   52.4606 C.ar    1  ZINC001362587626    0.1000
     17 C17        -6.9957    2.2611   53.6043 C.ar    1  ZINC001362587626   -0.1000
     18 C18        -8.3267    1.9189   53.7391 C.ar    1  ZINC001362587626   -0.1900
     19 C19        -9.2285    2.2298   52.7318 C.ar    1  ZINC001362587626    0.1200
     20 O20       -10.5389    1.8921   52.8649 O.3     1  ZINC001362587626   -0.2800
     21 C21       -11.0855    1.0128   51.8800 C.3     1  ZINC001362587626    0.0100
     22 C22       -10.3235   -0.3189   51.7436 C.3     1  ZINC001362587626    0.0200
     23 O23       -11.2558   -0.8222   52.7215 O.3     1  ZINC001362587626   -0.3700
     24 C24       -12.2602    0.1582   52.3924 C.3     1  ZINC001362587626    0.0400
     25 C25        -8.7942    2.8854   51.5891 C.ar    1  ZINC001362587626   -0.1300
     26 C26        -7.4644    3.2329   51.4554 C.ar    1  ZINC001362587626   -0.0800
     27 H27        -3.3665    5.1280   51.4218 H       1  ZINC001362587626    0.0700
     28 H28        -3.0030    4.3270   52.9693 H       1  ZINC001362587626    0.0800
     29 H29        -1.6958    4.6476   51.8045 H       1  ZINC001362587626    0.0800
     30 H30        -3.3023    3.3849   49.1954 H       1  ZINC001362587626    0.4100
     31 H31        -1.9479    2.5961   47.3649 H       1  ZINC001362587626    0.1500
     32 H32        -0.6716    3.7811   47.7324 H       1  ZINC001362587626    0.1400
     33 H33         1.8182    2.8493   48.0291 H       1  ZINC001362587626    0.2400
     34 H34        -4.8278    3.9564   52.8862 H       1  ZINC001362587626    0.4100
     35 H35        -6.2936    2.0184   54.3882 H       1  ZINC001362587626    0.1300
     36 H36        -8.6656    1.4087   54.6286 H       1  ZINC001362587626    0.1400
     37 H37       -11.2833    1.5082   50.9295 H       1  ZINC001362587626    0.0900
     38 H38       -10.4198   -0.7836   50.7623 H       1  ZINC001362587626    0.1000
     39 H39        -9.2935   -0.2758   52.0976 H       1  ZINC001362587626    0.1000
     40 H40       -12.7664    0.5797   53.2608 H       1  ZINC001362587626    0.1000
     41 H41       -12.9480   -0.1608   51.6092 H       1  ZINC001362587626    0.1000
     42 H42        -9.4968    3.1271   50.8053 H       1  ZINC001362587626    0.1400
     43 H43        -7.1264    3.7438   50.5659 H       1  ZINC001362587626    0.1500
@<TRIPOS>BOND
     1     1     2    1
     2     1    27    1
     3     1    28    1
     4     1    29    1
     5     2     3    1
     6     2     4    1
     7     2    13    1
     8     4     5   am
     9     4    30    1
    10     5     6    2
    11     5     7    1
    12     7     8    1
    13     7    31    1
    14     7    32    1
    15     8    12    1
    16     8     9    1
    17     9    10    2
    18     9    33    1
    19    10    11    1
    20    11    12    2
    21    13    14    2
    22    13    15   am
    23    15    16    1
    24    15    34    1
    25    16    26   ar
    26    16    17   ar
    27    17    18   ar
    28    17    35    1
    29    18    19   ar
    30    18    36    1
    31    19    20    1
    32    19    25   ar
    33    20    21    1
    34    21    24    1
    35    21    22    1
    36    21    37    1
    37    22    23    1
    38    22    38    1
    39    22    39    1
    40    23    24    1
    41    24    40    1
    42    24    41    1
    43    25    26   ar
    44    25    42    1
    45    26    43    1
@<TRIPOS>SUBSTRUCTURE
     1 ZINC001362587626        1 TEMP              0 ****  ****    0 ROOT


##########                                Name:    ZINC000538774026
##########                DOCK_Rotatable_Bonds:                  10
##########                         Heavy_Atoms:                  29
##########                    Molecular_Weight:             414.496
##########                DOCK_Rotatable_Bonds:                  10
##########                       Formal_Charge:            0.049999
##########                     HBond_Acceptors:                   9
##########                        HBond_Donors:                   2
##########                         Heavy_Atoms:                  29
##########                          Grid_Score:          -29.879309
##########                     Grid_vdw_energy:          -28.372231
##########                      Grid_es_energy:           -1.507079
##########           Internal_energy_repulsive:           30.458059

@<TRIPOS>MOLECULE
ZINC000538774026
 61 62 1 0 0
SMALL
USER_CHARGES


@<TRIPOS>ATOM
      1 C1         -4.2126    2.6365   50.8263 C.3     1  ZINC000538774026   -0.1500
      2 C2         -5.0583    3.1582   51.9898 C.3     1  ZINC000538774026   -0.1100
      3 C3         -5.4229    4.6228   51.7387 C.3     1  ZINC000538774026   -0.1400
      4 C4         -6.3374    2.3265   52.1035 C.3     1  ZINC000538774026    0.1400
      5 N5         -6.8618    2.4212   53.4682 N.pl3   1  ZINC000538774026   -0.3400
      6 N6         -6.5603    3.4229   54.3996 N.2     1  ZINC000538774026   -0.2500
      7 C7         -7.2165    3.1708   55.5031 C.2     1  ZINC000538774026    0.0500
      8 C8         -7.9614    1.9976   55.3153 C.2     1  ZINC000538774026    0.0800
      9 N9         -8.8036    1.3888   56.2660 N.am    1  ZINC000538774026   -0.6600
     10 C10        -8.3572    1.1678   57.5183 C.2     1  ZINC000538774026    0.7100
     11 O11        -7.2279    1.4955   57.8279 O.2     1  ZINC000538774026   -0.5700
     12 N12        -9.1626    0.5838   58.4275 N.am    1  ZINC000538774026   -0.7300
     13 C13        -8.6767    0.3419   59.7883 C.3     1  ZINC000538774026    0.1600
     14 C14        -9.4907    1.1795   60.7768 C.3     1  ZINC000538774026   -0.1300
     15 C15       -10.9663    0.7857   60.6847 C.3     1  ZINC000538774026   -0.1000
     16 C16       -11.1205   -0.6978   61.0252 C.3     1  ZINC000538774026   -0.0800
     17 C17       -12.5740   -1.0856   60.9344 C.2     1  ZINC000538774026    0.4700
     18 O18       -12.9097   -2.2258   61.1514 O.2     1  ZINC000538774026   -0.5000
     19 O19       -13.4956   -0.1643   60.6126 O.3     1  ZINC000538774026   -0.3500
     20 C20       -14.1914   -0.3408   59.3504 C.3     1  ZINC000538774026    0.1200
     21 C21       -15.4538   -1.1752   59.5763 C.3     1  ZINC000538774026   -0.1800
     22 C22       -14.5786    1.0276   58.7859 C.3     1  ZINC000538774026   -0.1400
     23 C23       -13.2748   -1.0606   58.3591 C.3     1  ZINC000538774026   -0.1800
     24 C24       -10.3066   -1.5353   60.0367 C.3     1  ZINC000538774026   -0.1100
     25 C25        -8.8310   -1.1417   60.1289 C.3     1  ZINC000538774026   -0.1300
     26 C26        -7.7312    1.5562   54.0526 C.2     1  ZINC000538774026   -0.0500
     27 C27        -8.3250    0.3254   53.4174 C.3     1  ZINC000538774026    0.3500
     28 F28        -9.5469    0.0277   54.0301 F       1  ZINC000538774026   -0.1900
     29 F29        -8.5318    0.5582   52.0534 F       1  ZINC000538774026   -0.1900
     30 H30        -3.3013    3.2290   50.7452 H       1  ZINC000538774026    0.0600
     31 H31        -3.9530    1.5931   51.0051 H       1  ZINC000538774026    0.0600
     32 H32        -4.7812    2.7157   49.8997 H       1  ZINC000538774026    0.0600
     33 H33        -4.4897    3.0790   52.9164 H       1  ZINC000538774026    0.0800
     34 H34        -5.9914    4.7020   50.8122 H       1  ZINC000538774026    0.0600
     35 H35        -6.0254    4.9944   52.5675 H       1  ZINC000538774026    0.0600
     36 H36        -4.5116    5.2153   51.6576 H       1  ZINC000538774026    0.0600
     37 H37        -7.0805    2.7051   51.4017 H       1  ZINC000538774026    0.1000
     38 H38        -6.1155    1.2850   51.8710 H       1  ZINC000538774026    0.1000
     39 H39        -7.1890    3.7647   56.4048 H       1  ZINC000538774026    0.2100
     40 H40        -9.7049    1.1285   56.0194 H       1  ZINC000538774026    0.4100
     41 H41       -10.0639    0.3235   58.1810 H       1  ZINC000538774026    0.4000
     42 H42        -7.6255    0.6223   59.8540 H       1  ZINC000538774026    0.1000
     43 H43        -9.1292    0.9995   61.7892 H       1  ZINC000538774026    0.0800
     44 H44        -9.3808    2.2363   60.5342 H       1  ZINC000538774026    0.0800
     45 H45       -11.5461    1.3824   61.3889 H       1  ZINC000538774026    0.0700
     46 H46       -11.3278    0.9656   59.6722 H       1  ZINC000538774026    0.0700
     47 H47       -10.7591   -0.8777   62.0376 H       1  ZINC000538774026    0.1100
     48 H48       -16.1067   -0.6624   60.2826 H       1  ZINC000538774026    0.0600
     49 H49       -15.9761   -1.3077   58.6288 H       1  ZINC000538774026    0.0700
     50 H50       -15.1778   -2.1499   59.9784 H       1  ZINC000538774026    0.0800
     51 H51       -13.6793    1.6220   58.6251 H       1  ZINC000538774026    0.0700
     52 H52       -15.1010    0.8951   57.8385 H       1  ZINC000538774026    0.0800
     53 H53       -15.2316    1.5404   59.4922 H       1  ZINC000538774026    0.0700
     54 H54       -12.9989   -2.0353   58.7613 H       1  ZINC000538774026    0.0800
     55 H55       -13.7971   -1.1930   57.4116 H       1  ZINC000538774026    0.0700
     56 H56       -12.3754   -0.4661   58.1982 H       1  ZINC000538774026    0.0600
     57 H57       -10.4166   -2.5922   60.2793 H       1  ZINC000538774026    0.0800
     58 H58       -10.6681   -1.3554   59.0243 H       1  ZINC000538774026    0.0600
     59 H59        -8.2512   -1.7383   59.4247 H       1  ZINC000538774026    0.0800
     60 H60        -8.4696   -1.3215   61.1414 H       1  ZINC000538774026    0.0900
     61 H61        -7.6414   -0.5142   53.5431 H       1  ZINC000538774026    0.1300
@<TRIPOS>BOND
     1     1     2    1
     2     1    30    1
     3     1    31    1
     4     1    32    1
     5     2     3    1
     6     2     4    1
     7     2    33    1
     8     3    34    1
     9     3    35    1
    10     3    36    1
    11     4     5    1
    12     4    37    1
    13     4    38    1
    14     5    26    1
    15     5     6    1
    16     6     7    2
    17     7     8    1
    18     7    39    1
    19     8     9    1
    20     8    26    2
    21     9    10   am
    22     9    40    1
    23    10    11    2
    24    10    12   am
    25    12    13    1
    26    12    41    1
    27    13    25    1
    28    13    14    1
    29    13    42    1
    30    14    15    1
    31    14    43    1
    32    14    44    1
    33    15    16    1
    34    15    45    1
    35    15    46    1
    36    16    17    1
    37    16    24    1
    38    16    47    1
    39    17    18    2
    40    17    19    1
    41    19    20    1
    42    20    21    1
    43    20    22    1
    44    20    23    1
    45    21    48    1
    46    21    49    1
    47    21    50    1
    48    22    51    1
    49    22    52    1
    50    22    53    1
    51    23    54    1
    52    23    55    1
    53    23    56    1
    54    24    25    1
    55    24    57    1
    56    24    58    1
    57    25    59    1
    58    25    60    1
    59    26    27    1
    60    27    28    1
    61    27    29    1
    62    27    61    1
@<TRIPOS>SUBSTRUCTURE
     1 ZINC000538774026        1 TEMP              0 ****  ****    0 ROOT


##########                                Name:    ZINC000482540246
##########                DOCK_Rotatable_Bonds:                  10
##########                         Heavy_Atoms:                  30
##########                    Molecular_Weight:              409.46
##########                DOCK_Rotatable_Bonds:                  10
##########                       Formal_Charge:         2.83122e-07
##########                     HBond_Acceptors:                   7
##########                        HBond_Donors:                   2
##########                         Heavy_Atoms:                  30
##########                          Grid_Score:          -29.876627
##########                     Grid_vdw_energy:          -28.272795
##########                      Grid_es_energy:           -1.603833
##########           Internal_energy_repulsive:           13.465747

@<TRIPOS>MOLECULE
ZINC000482540246
 54 56 1 0 0
SMALL
USER_CHARGES


@<TRIPOS>ATOM
      1 C1        -15.0025    4.0391   48.9285 C.3     1  ZINC000482540246    0.0400
      2 O2        -14.3758    3.7489   50.1795 O.3     1  ZINC000482540246   -0.3100
      3 C3        -13.6280    2.6187   50.2463 C.ar    1  ZINC000482540246    0.3300
      4 C4        -12.9975    2.2805   51.4365 C.ar    1  ZINC000482540246   -0.1800
      5 C5        -12.2375    1.1249   51.4914 C.ar    1  ZINC000482540246   -0.0100
      6 C6        -11.5378    0.7225   52.7641 C.3     1  ZINC000482540246    0.2000
      7 H7        -11.5122    1.5704   53.4484 H       1  ZINC000482540246    0.1000
      8 C8        -10.1078    0.2830   52.4428 C.3     1  ZINC000482540246   -0.1600
      9 N9        -12.2611   -0.3877   53.3889 N.am    1  ZINC000482540246   -0.7400
     10 C10       -12.2648   -0.5196   54.7301 C.2     1  ZINC000482540246    0.7100
     11 O11       -11.6666    0.2820   55.4215 O.2     1  ZINC000482540246   -0.5800
     12 N12       -12.9316   -1.5401   55.3051 N.am    1  ZINC000482540246   -0.7400
     13 C13       -12.9372   -1.6824   56.7632 C.3     1  ZINC000482540246    0.2100
     14 H14       -13.1720   -0.7216   57.2212 H       1  ZINC000482540246    0.1200
     15 C15       -11.5587   -2.1491   57.2352 C.3     1  ZINC000482540246    0.0500
     16 O16       -11.5775   -2.3333   58.6522 O.3     1  ZINC000482540246   -0.3000
     17 C17       -10.4793   -1.9258   59.3423 C.ar    1  ZINC000482540246    0.1000
     18 C18        -9.2444   -2.5000   59.0842 C.ar    1  ZINC000482540246   -0.1800
     19 C19        -8.1290   -2.0838   59.7865 C.ar    1  ZINC000482540246   -0.0900
     20 C20        -8.2430   -1.0956   60.7460 C.ar    1  ZINC000482540246   -0.1300
     21 C21        -9.4734   -0.5202   61.0070 C.ar    1  ZINC000482540246   -0.1200
     22 C22       -10.5916   -0.9287   60.3034 C.ar    1  ZINC000482540246    0.0700
     23 F23       -11.7936   -0.3669   60.5580 F       1  ZINC000482540246   -0.1300
     24 C24       -13.9759   -2.6977   57.1649 C.ar    1  ZINC000482540246   -0.1000
     25 C25       -14.3110   -3.7229   56.3002 C.ar    1  ZINC000482540246   -0.0800
     26 C26       -15.2638   -4.6541   56.6687 C.ar    1  ZINC000482540246   -0.1200
     27 C27       -15.8812   -4.5605   57.9020 C.ar    1  ZINC000482540246   -0.1200
     28 C28       -15.5455   -3.5359   58.7669 C.ar    1  ZINC000482540246   -0.1200
     29 C29       -14.5895   -2.6070   58.4002 C.ar    1  ZINC000482540246   -0.1000
     30 C30       -12.1350    0.3453   50.3480 C.ar    1  ZINC000482540246   -0.2100
     31 C31       -12.7891    0.7424   49.1985 C.ar    1  ZINC000482540246    0.1500
     32 N32       -13.5108    1.8467   49.1785 N.ar    1  ZINC000482540246   -0.5400
     33 H33       -15.5679    4.9673   49.0120 H       1  ZINC000482540246    0.1000
     34 H34       -14.2404    4.1461   48.1565 H       1  ZINC000482540246    0.0600
     35 H35       -15.6772    3.2253   48.6626 H       1  ZINC000482540246    0.0600
     36 H36       -13.0985    2.9110   52.3076 H       1  ZINC000482540246    0.1500
     37 H37       -10.1334   -0.5649   51.7585 H       1  ZINC000482540246    0.0600
     38 H38        -9.5697    1.1091   51.9779 H       1  ZINC000482540246    0.0700
     39 H39        -9.6018   -0.0080   53.3633 H       1  ZINC000482540246    0.0700
     40 H40       -12.7373   -1.0279   52.8373 H       1  ZINC000482540246    0.4000
     41 H41       -13.4079   -2.1802   54.7536 H       1  ZINC000482540246    0.4000
     42 H42       -11.3084   -3.0922   56.7494 H       1  ZINC000482540246    0.0800
     43 H43       -10.8125   -1.3979   56.9765 H       1  ZINC000482540246    0.0800
     44 H44        -9.1538   -3.2726   58.3349 H       1  ZINC000482540246    0.1400
     45 H45        -7.1670   -2.5317   59.5855 H       1  ZINC000482540246    0.1300
     46 H46        -7.3699   -0.7724   61.2932 H       1  ZINC000482540246    0.1400
     47 H47        -9.5600    0.2515   61.7576 H       1  ZINC000482540246    0.1400
     48 H48       -13.8286   -3.7960   55.3367 H       1  ZINC000482540246    0.1200
     49 H49       -15.5262   -5.4547   55.9928 H       1  ZINC000482540246    0.1200
     50 H50       -16.6262   -5.2877   58.1895 H       1  ZINC000482540246    0.1200
     51 H51       -16.0281   -3.4624   59.7303 H       1  ZINC000482540246    0.1200
     52 H52       -14.3272   -1.8065   59.0760 H       1  ZINC000482540246    0.1200
     53 H53       -11.5496   -0.5623   50.3569 H       1  ZINC000482540246    0.1400
     54 H54       -12.7126    0.1392   48.3060 H       1  ZINC000482540246    0.1600
@<TRIPOS>BOND
     1     1     2    1
     2     1    33    1
     3     1    34    1
     4     1    35    1
     5     2     3    1
     6     3    32   ar
     7     3     4   ar
     8     4     5   ar
     9     4    36    1
    10     5     6    1
    11     5    30   ar
    12     6     7    1
    13     6     8    1
    14     6     9    1
    15     8    37    1
    16     8    38    1
    17     8    39    1
    18     9    10   am
    19     9    40    1
    20    10    11    2
    21    10    12   am
    22    12    13    1
    23    12    41    1
    24    13    14    1
    25    13    15    1
    26    13    24    1
    27    15    16    1
    28    15    42    1
    29    15    43    1
    30    16    17    1
    31    17    22   ar
    32    17    18   ar
    33    18    19   ar
    34    18    44    1
    35    19    20   ar
    36    19    45    1
    37    20    21   ar
    38    20    46    1
    39    21    22   ar
    40    21    47    1
    41    22    23    1
    42    24    29   ar
    43    24    25   ar
    44    25    26   ar
    45    25    48    1
    46    26    27   ar
    47    26    49    1
    48    27    28   ar
    49    27    50    1
    50    28    29   ar
    51    28    51    1
    52    29    52    1
    53    30    31   ar
    54    30    53    1
    55    31    32   ar
    56    31    54    1
@<TRIPOS>SUBSTRUCTURE
     1 ZINC000482540246        1 TEMP              0 ****  ****    0 ROOT


##########                                Name:    ZINC000750807956
##########                DOCK_Rotatable_Bonds:                  11
##########                         Heavy_Atoms:                  26
##########                    Molecular_Weight:             368.473
##########                DOCK_Rotatable_Bonds:                  11
##########                       Formal_Charge:        -8.12113e-07
##########                     HBond_Acceptors:                   7
##########                        HBond_Donors:                   1
##########                         Heavy_Atoms:                  26
##########                          Grid_Score:          -29.858234
##########                     Grid_vdw_energy:          -29.007221
##########                      Grid_es_energy:           -0.851013
##########           Internal_energy_repulsive:           97.653160

@<TRIPOS>MOLECULE
ZINC000750807956
 58 59 1 0 0
SMALL
USER_CHARGES


@<TRIPOS>ATOM
      1 C1          4.1852   -0.8236   50.5888 C.3     1  ZINC000750807956   -0.1500
      2 C2          4.3074   -0.1267   49.2321 C.3     1  ZINC000750807956    0.0700
      3 O3          3.0757    0.5849   48.9408 O.3     1  ZINC000750807956   -0.3600
      4 C4          2.3435    0.1384   47.9083 C.2     1  ZINC000750807956    0.4800
      5 O5          1.8239   -0.9511   47.9627 O.2     1  ZINC000750807956   -0.4900
      6 C6          2.1694    0.9958   46.6813 C.3     1  ZINC000750807956    0.1600
      7 H7          1.8765    0.3710   45.8375 H       1  ZINC000750807956    0.1000
      8 C8          3.4878    1.7069   46.3605 C.3     1  ZINC000750807956   -0.1300
      9 C9          3.2684    2.6805   45.2003 C.3     1  ZINC000750807956   -0.1200
     10 C10         2.2367    3.7356   45.6055 C.3     1  ZINC000750807956   -0.1400
     11 C11         0.9041    3.0474   45.9178 C.3     1  ZINC000750807956    0.1100
     12 N12         1.1320    2.0061   46.9295 N.am    1  ZINC000750807956   -0.6100
     13 C13         0.4067    1.9817   48.0652 C.2     1  ZINC000750807956    0.5100
     14 O14         0.6043    1.1171   48.8925 O.2     1  ZINC000750807956   -0.5000
     15 C15        -0.6497    3.0288   48.3073 C.3     1  ZINC000750807956   -0.1400
     16 C16        -1.1995    2.8798   49.7273 C.3     1  ZINC000750807956    0.2100
     17 H17        -1.2444    1.8231   49.9905 H       1  ZINC000750807956    0.1000
     18 N18        -2.5443    3.4571   49.7934 N.am    1  ZINC000750807956   -0.7000
     19 C19        -3.4952    2.8663   50.5437 C.2     1  ZINC000750807956    0.6600
     20 O20        -3.2367    1.8554   51.1666 O.2     1  ZINC000750807956   -0.5600
     21 O21        -4.7315    3.3959   50.6032 O.3     1  ZINC000750807956   -0.3700
     22 C22        -5.6521    2.8149   51.5641 C.3     1  ZINC000750807956    0.1400
     23 C23        -6.9635    3.6030   51.5549 C.3     1  ZINC000750807956   -0.1800
     24 C24        -5.9300    1.3582   51.1880 C.3     1  ZINC000750807956   -0.1400
     25 C25        -5.0330    2.8715   52.9621 C.3     1  ZINC000750807956   -0.1800
     26 C26        -0.2816    3.6113   50.7089 C.3     1  ZINC000750807956   -0.1800
     27 C27        -0.7513    4.9676   51.2385 C.3     1  ZINC000750807956   -0.1700
     28 C28        -0.7579    3.7438   52.1567 C.3     1  ZINC000750807956   -0.1800
     29 H29         3.3554   -1.5298   50.5610 H       1  ZINC000750807956    0.0600
     30 H30         5.1098   -1.3577   50.8074 H       1  ZINC000750807956    0.0800
     31 H31         4.0033   -0.0795   51.3643 H       1  ZINC000750807956    0.0700
     32 H32         5.1372    0.5796   49.2599 H       1  ZINC000750807956    0.0700
     33 H33         4.4893   -0.8707   48.4566 H       1  ZINC000750807956    0.0600
     34 H34         3.8272    2.2573   47.2380 H       1  ZINC000750807956    0.0800
     35 H35         4.2399    0.9696   46.0796 H       1  ZINC000750807956    0.0800
     36 H36         4.2107    3.1699   44.9538 H       1  ZINC000750807956    0.0800
     37 H37         2.9055    2.1329   44.3305 H       1  ZINC000750807956    0.0700
     38 H38         2.5878    4.2669   46.4902 H       1  ZINC000750807956    0.0700
     39 H39         2.0982    4.4422   44.7873 H       1  ZINC000750807956    0.0800
     40 H40         0.1951    3.7810   46.3015 H       1  ZINC000750807956    0.0900
     41 H41         0.5067    2.5919   45.0107 H       1  ZINC000750807956    0.0800
     42 H42        -0.2126    4.0202   48.1890 H       1  ZINC000750807956    0.1200
     43 H43        -1.4595    2.9006   47.5889 H       1  ZINC000750807956    0.1100
     44 H44        -2.7503    4.2648   49.2971 H       1  ZINC000750807956    0.4000
     45 H45        -7.4046    3.5628   50.5590 H       1  ZINC000750807956    0.0600
     46 H46        -7.6545    3.1670   52.2763 H       1  ZINC000750807956    0.0700
     47 H47        -6.7656    4.6409   51.8230 H       1  ZINC000750807956    0.0900
     48 H48        -4.9957    0.7967   51.1945 H       1  ZINC000750807956    0.0700
     49 H49        -6.6210    0.9220   51.9093 H       1  ZINC000750807956    0.0800
     50 H50        -6.3711    1.3179   50.1920 H       1  ZINC000750807956    0.0700
     51 H51        -4.8350    3.9094   53.2301 H       1  ZINC000750807956    0.0900
     52 H52        -5.7240    2.4354   53.6835 H       1  ZINC000750807956    0.0700
     53 H53        -4.0987    2.3101   52.9687 H       1  ZINC000750807956    0.0600
     54 H54         0.7872    3.4790   50.5407 H       1  ZINC000750807956    0.1100
     55 H55         0.0084    5.7281   51.4189 H       1  ZINC000750807956    0.0900
     56 H56        -1.7143    5.3388   50.8878 H       1  ZINC000750807956    0.0900
     57 H57        -1.7253    3.3098   52.4100 H       1  ZINC000750807956    0.1200
     58 H58        -0.0025    3.6990   52.9412 H       1  ZINC000750807956    0.0900
@<TRIPOS>BOND
     1     1     2    1
     2     1    29    1
     3     1    30    1
     4     1    31    1
     5     2     3    1
     6     2    32    1
     7     2    33    1
     8     3     4    1
     9     4     5    2
    10     4     6    1
    11     6     7    1
    12     6    12    1
    13     6     8    1
    14     8     9    1
    15     8    34    1
    16     8    35    1
    17     9    10    1
    18     9    36    1
    19     9    37    1
    20    10    11    1
    21    10    38    1
    22    10    39    1
    23    11    12    1
    24    11    40    1
    25    11    41    1
    26    12    13   am
    27    13    14    2
    28    13    15    1
    29    15    16    1
    30    15    42    1
    31    15    43    1
    32    16    17    1
    33    16    18    1
    34    16    26    1
    35    18    19   am
    36    18    44    1
    37    19    20    2
    38    19    21    1
    39    21    22    1
    40    22    23    1
    41    22    24    1
    42    22    25    1
    43    23    45    1
    44    23    46    1
    45    23    47    1
    46    24    48    1
    47    24    49    1
    48    24    50    1
    49    25    51    1
    50    25    52    1
    51    25    53    1
    52    26    28    1
    53    26    27    1
    54    26    54    1
    55    27    28    1
    56    27    55    1
    57    27    56    1
    58    28    57    1
    59    28    58    1
@<TRIPOS>SUBSTRUCTURE
     1 ZINC000750807956        1 TEMP              0 ****  ****    0 ROOT


##########                                Name:    ZINC000482187991
##########                DOCK_Rotatable_Bonds:                  11
##########                         Heavy_Atoms:                  29
##########                    Molecular_Weight:             407.414
##########                DOCK_Rotatable_Bonds:                  11
##########                       Formal_Charge:           0.0299996
##########                     HBond_Acceptors:                   8
##########                        HBond_Donors:                   1
##########                         Heavy_Atoms:                  29
##########                          Grid_Score:          -29.857693
##########                     Grid_vdw_energy:          -28.594656
##########                      Grid_es_energy:           -1.263036
##########           Internal_energy_repulsive:           11.086187

@<TRIPOS>MOLECULE
ZINC000482187991
 52 53 1 0 0
SMALL
USER_CHARGES


@<TRIPOS>ATOM
      1 C1         -9.9795   -0.1264   51.8139 C.3     1  ZINC000482187991    0.0200
      2 O2        -10.7328    1.0291   52.1874 O.3     1  ZINC000482187991   -0.3000
      3 C3        -11.1584    1.8402   51.1821 C.ar    1  ZINC000482187991    0.1400
      4 C4        -12.2509    1.4776   50.4188 C.ar    1  ZINC000482187991   -0.1700
      5 C5        -12.6884    2.3135   49.3844 C.ar    1  ZINC000482187991   -0.1000
      6 C6        -13.8499    1.9317   48.5708 C.2     1  ZINC000482187991    0.4000
      7 O7        -14.9721    2.0967   49.0007 O.2     1  ZINC000482187991   -0.4500
      8 C8        -13.6476    1.3350   47.2018 C.3     1  ZINC000482187991   -0.1500
      9 C9        -14.3071    2.2317   46.1521 C.3     1  ZINC000482187991   -0.1300
     10 C10       -14.5119    1.4495   44.8804 C.2     1  ZINC000482187991    0.5200
     11 O11       -14.9212    0.3089   44.9292 O.2     1  ZINC000482187991   -0.5200
     12 N12       -14.2400    2.0174   43.6887 N.am    1  ZINC000482187991   -0.7200
     13 C13       -14.4375    1.2564   42.4525 C.3     1  ZINC000482187991    0.1500
     14 H14       -14.2386    0.2012   42.6398 H       1  ZINC000482187991    0.1300
     15 C15       -13.4938    1.7651   41.3934 C.ar    1  ZINC000482187991   -0.1100
     16 C16       -13.2570    3.1216   41.2724 C.ar    1  ZINC000482187991   -0.1000
     17 C17       -12.3915    3.5882   40.3009 C.ar    1  ZINC000482187991   -0.1200
     18 C18       -11.7623    2.6983   39.4506 C.ar    1  ZINC000482187991   -0.1100
     19 C19       -11.9984    1.3416   39.5721 C.ar    1  ZINC000482187991   -0.1200
     20 C20       -12.8606    0.8747   40.5465 C.ar    1  ZINC000482187991   -0.1000
     21 C21       -15.8807    1.4263   41.9739 C.3     1  ZINC000482187991    0.2500
     22 F22       -16.7406    0.7285   42.8288 F       1  ZINC000482187991   -0.1900
     23 F23       -16.2173    2.7841   41.9804 F       1  ZINC000482187991   -0.2000
     24 C24       -12.0162    3.5146   49.1277 C.ar    1  ZINC000482187991   -0.1900
     25 C25       -10.9244    3.8705   49.8952 C.ar    1  ZINC000482187991    0.1400
     26 O26       -10.2710    5.0372   49.6471 O.3     1  ZINC000482187991   -0.3000
     27 C27        -9.5803    5.1413   48.4005 C.3     1  ZINC000482187991    0.0200
     28 C28       -10.4952    3.0386   50.9272 C.ar    1  ZINC000482187991    0.0600
     29 O29        -9.4214    3.3922   51.6802 O.3     1  ZINC000482187991   -0.3100
     30 C30        -9.6512    4.3200   52.7425 C.3     1  ZINC000482187991    0.0400
     31 H31        -9.7031   -0.6847   52.7083 H       1  ZINC000482187991    0.1100
     32 H32       -10.5831   -0.7589   51.1629 H       1  ZINC000482187991    0.0600
     33 H33        -9.0777    0.1830   51.2855 H       1  ZINC000482187991    0.0600
     34 H34       -12.7667    0.5502   50.6195 H       1  ZINC000482187991    0.1500
     35 H35       -12.5806    1.2563   46.9937 H       1  ZINC000482187991    0.1100
     36 H36       -14.0986    0.3433   47.1675 H       1  ZINC000482187991    0.1100
     37 H37       -15.2710    2.5787   46.5245 H       1  ZINC000482187991    0.1000
     38 H38       -13.6650    3.0893   45.9517 H       1  ZINC000482187991    0.1000
     39 H39       -13.9138    2.9301   43.6496 H       1  ZINC000482187991    0.4100
     40 H40       -13.7486    3.8169   41.9368 H       1  ZINC000482187991    0.1200
     41 H41       -12.2070    4.6481   40.2059 H       1  ZINC000482187991    0.1300
     42 H42       -11.0865    3.0628   38.6911 H       1  ZINC000482187991    0.1300
     43 H43       -11.5071    0.6464   38.9075 H       1  ZINC000482187991    0.1300
     44 H44       -13.0450   -0.1852   40.6414 H       1  ZINC000482187991    0.1300
     45 H45       -15.9766    1.0331   40.9618 H       1  ZINC000482187991    0.1200
     46 H46       -12.3507    4.1617   48.3304 H       1  ZINC000482187991    0.1500
     47 H47        -8.8209    4.3616   48.3394 H       1  ZINC000482187991    0.0600
     48 H48       -10.2894    5.0228   47.5811 H       1  ZINC000482187991    0.0600
     49 H49        -9.1036    6.1190   48.3298 H       1  ZINC000482187991    0.1100
     50 H50       -10.0413    5.2518   52.3330 H       1  ZINC000482187991    0.0500
     51 H51       -10.3739    3.8998   53.4420 H       1  ZINC000482187991    0.0500
     52 H52        -8.7137    4.5162   53.2627 H       1  ZINC000482187991    0.1000
@<TRIPOS>BOND
     1     1     2    1
     2     1    31    1
     3     1    32    1
     4     1    33    1
     5     2     3    1
     6     3    28   ar
     7     3     4   ar
     8     4     5   ar
     9     4    34    1
    10     5     6    1
    11     5    24   ar
    12     6     7    2
    13     6     8    1
    14     8     9    1
    15     8    35    1
    16     8    36    1
    17     9    10    1
    18     9    37    1
    19     9    38    1
    20    10    11    2
    21    10    12   am
    22    12    13    1
    23    12    39    1
    24    13    14    1
    25    13    15    1
    26    13    21    1
    27    15    20   ar
    28    15    16   ar
    29    16    17   ar
    30    16    40    1
    31    17    18   ar
    32    17    41    1
    33    18    19   ar
    34    18    42    1
    35    19    20   ar
    36    19    43    1
    37    20    44    1
    38    21    22    1
    39    21    23    1
    40    21    45    1
    41    24    25   ar
    42    24    46    1
    43    25    26    1
    44    25    28   ar
    45    26    27    1
    46    27    47    1
    47    27    48    1
    48    27    49    1
    49    28    29    1
    50    29    30    1
    51    30    50    1
    52    30    51    1
    53    30    52    1
@<TRIPOS>SUBSTRUCTURE
     1 ZINC000482187991        1 TEMP              0 ****  ****    0 ROOT


##########                                Name:    ZINC000193795672
##########                DOCK_Rotatable_Bonds:                  10
##########                         Heavy_Atoms:                  23
##########                    Molecular_Weight:              332.47
##########                DOCK_Rotatable_Bonds:                  10
##########                       Formal_Charge:        -2.98023e-07
##########                     HBond_Acceptors:                   6
##########                        HBond_Donors:                   3
##########                         Heavy_Atoms:                  23
##########                          Grid_Score:          -29.849403
##########                     Grid_vdw_energy:          -27.485487
##########                      Grid_es_energy:           -2.363917
##########           Internal_energy_repulsive:            6.523582

@<TRIPOS>MOLECULE
ZINC000193795672
 47 48 1 0 0
SMALL
USER_CHARGES


@<TRIPOS>ATOM
      1 C1          0.9127    3.9104   46.8745 C.3     1  <0>        -0.1000
      2 C2          0.0504    3.4828   48.0341 C.ar    1  <0>        -0.2000
      3 C3          0.2659    4.0102   49.3002 C.ar    1  <0>        -0.0300
      4 C4         -0.5483    3.5914   50.3373 C.ar    1  <0>        -0.2400
      5 C5         -1.5495    2.6614   50.0779 C.ar    1  <0>         0.4000
      6 N6         -2.3749    2.2318   51.1107 N.pl3   1  <0>        -0.7300
      7 C7         -3.6271    2.9389   51.3901 C.3     1  <0>         0.1300
      8 C8         -4.7873    2.2101   50.7091 C.3     1  <0>        -0.1400
      9 C9         -6.1124    2.7003   51.2963 C.3     1  <0>         0.1400
     10 N10        -6.6853    1.6553   52.1483 N.am    1  <0>        -0.7500
     11 C11        -8.0225    1.5521   52.2813 C.2     1  <0>         0.7100
     12 O12        -8.7534    2.3254   51.6929 O.2     1  <0>        -0.5900
     13 N13        -8.5495    0.5918   53.0664 N.am    1  <0>        -0.7400
     14 C14       -10.0030    0.4808   53.2124 C.3     1  <0>         0.1700
     15 H15       -10.4380    1.4775   53.2855 H       1  <0>         0.0900
     16 C16       -10.5841   -0.2413   51.9951 C.3     1  <0>        -0.1700
     17 C17       -10.3292   -0.3123   54.4795 C.3     1  <0>        -0.0600
     18 C18       -11.8009   -0.1934   54.7815 C.2     1  <0>        -0.1700
     19 C19       -12.4632    0.9536   54.9393 C.2     1  <0>        -0.1400
     20 C20       -13.8134    0.8148   55.2109 C.2     1  <0>        -0.1300
     21 C21       -14.2476   -0.4449   55.2737 C.2     1  <0>        -0.2100
     22 S22       -12.9093   -1.5456   54.9723 S.3     1  <0>         0.0900
     23 N23        -1.7238    2.1819   48.8560 N.ar    1  <0>        -0.5400
     24 C24        -0.9656    2.5669   47.8471 C.ar    1  <0>         0.1500
     25 H25         0.4670    4.7801   46.3916 H       1  <0>         0.0700
     26 H26         1.9082    4.1667   47.2370 H       1  <0>         0.0600
     27 H27         0.9865    3.0940   46.1561 H       1  <0>         0.0700
     28 H28         1.0518    4.7309   49.4717 H       1  <0>         0.1300
     29 H29        -0.4081    3.9810   51.3348 H       1  <0>         0.1300
     30 H30        -2.1216    1.4637   51.6464 H       1  <0>         0.4000
     31 H31        -3.7967    2.9659   52.4665 H       1  <0>         0.0700
     32 H32        -3.5627    3.9573   51.0068 H       1  <0>         0.0700
     33 H33        -4.7665    2.4145   49.6387 H       1  <0>         0.0800
     34 H34        -4.6906    1.1374   50.8762 H       1  <0>         0.0800
     35 H35        -5.9370    3.5975   51.8899 H       1  <0>         0.0700
     36 H36        -6.8056    2.9299   50.4870 H       1  <0>         0.0700
     37 H37        -6.1022    1.0376   52.6168 H       1  <0>         0.4000
     38 H38        -7.9664   -0.0258   53.5350 H       1  <0>         0.3900
     39 H39       -10.1491   -1.2380   51.9219 H       1  <0>         0.0600
     40 H40       -11.6656   -0.3239   52.1036 H       1  <0>         0.0700
     41 H41       -10.3517    0.3237   51.0924 H       1  <0>         0.0700
     42 H42       -10.0730   -1.3608   54.3279 H       1  <0>         0.1000
     43 H43        -9.7535    0.0852   55.3153 H       1  <0>         0.0800
     44 H44       -11.9824    1.9175   54.8614 H       1  <0>         0.1400
     45 H45       -14.4659    1.6623   55.3610 H       1  <0>         0.1400
     46 H46       -15.2658   -0.7432   55.4751 H       1  <0>         0.1600
     47 H47        -1.1369    2.1542   46.8638 H       1  <0>         0.1500
@<TRIPOS>BOND
     1     1     2    1
     2     1    25    1
     3     1    26    1
     4     1    27    1
     5     2    24   ar
     6     2     3   ar
     7     3     4   ar
     8     3    28    1
     9     4     5   ar
    10     4    29    1
    11     5     6    1
    12     5    23   ar
    13     6     7    1
    14     6    30    1
    15     7     8    1
    16     7    31    1
    17     7    32    1
    18     8     9    1
    19     8    33    1
    20     8    34    1
    21     9    10    1
    22     9    35    1
    23     9    36    1
    24    10    11   am
    25    10    37    1
    26    11    12    2
    27    11    13   am
    28    13    14    1
    29    13    38    1
    30    14    15    1
    31    14    16    1
    32    14    17    1
    33    16    39    1
    34    16    40    1
    35    16    41    1
    36    17    18    1
    37    17    42    1
    38    17    43    1
    39    18    22    1
    40    18    19    2
    41    19    20    1
    42    19    44    1
    43    20    21    2
    44    20    45    1
    45    21    22    1
    46    21    46    1
    47    23    24   ar
    48    24    47    1
@<TRIPOS>SUBSTRUCTURE
     1 <0>         1 TEMP              0 ****  ****    0 ROOT


##########                                Name:    ZINC000746432885
##########                DOCK_Rotatable_Bonds:                  11
##########                         Heavy_Atoms:                  31
##########                    Molecular_Weight:              419.44
##########                DOCK_Rotatable_Bonds:                  11
##########                       Formal_Charge:           0.0199995
##########                     HBond_Acceptors:                   9
##########                        HBond_Donors:                   2
##########                         Heavy_Atoms:                  31
##########                          Grid_Score:          -29.793415
##########                     Grid_vdw_energy:          -29.584059
##########                      Grid_es_energy:           -0.209357
##########           Internal_energy_repulsive:           14.156466

@<TRIPOS>MOLECULE
ZINC000746432885
 52 54 1 0 0
SMALL
USER_CHARGES


@<TRIPOS>ATOM
      1 C1         -9.3034    2.3085   62.3205 C.3     1  ZINC000746432885    0.0300
      2 O2         -9.9172    1.0223   62.4257 O.3     1  ZINC000746432885   -0.3200
      3 C3         -9.9388    0.2553   61.3040 C.ar    1  ZINC000746432885    0.1300
      4 C4         -9.0287   -0.7808   61.1532 C.ar    1  ZINC000746432885   -0.2000
      5 C5         -9.0526   -1.5589   60.0120 C.ar    1  ZINC000746432885   -0.0800
      6 C6         -9.9821   -1.3055   59.0203 C.ar    1  ZINC000746432885   -0.1400
      7 C7        -10.8902   -0.2733   59.1683 C.ar    1  ZINC000746432885   -0.0600
      8 C8        -11.9023    0.0000   58.0857 C.3     1  ZINC000746432885    0.2300
      9 N9        -11.2548   -0.0998   56.7753 N.am    1  ZINC000746432885   -0.6900
     10 C10       -10.3548    0.8290   56.3959 C.2     1  ZINC000746432885    0.5200
     11 O11       -10.0797    1.7472   57.1405 O.2     1  ZINC000746432885   -0.5100
     12 C12        -9.6961    0.7283   55.0596 C.2     1  ZINC000746432885    0.5100
     13 O13       -10.1318   -0.0372   54.2242 O.2     1  ZINC000746432885   -0.5100
     14 N14        -8.6179    1.4875   54.7809 N.am    1  ZINC000746432885   -0.6100
     15 C15        -7.9992    1.3940   53.5232 C.2     1  ZINC000746432885    0.0000
     16 C16        -7.5637    2.4343   52.7656 C.2     1  ZINC000746432885    0.0400
     17 N17        -7.0307    1.9220   51.6334 N.pl3   1  ZINC000746432885   -0.3800
     18 C18        -6.4409    2.6910   50.5349 C.3     1  ZINC000746432885    0.2500
     19 C19        -5.0266    2.9684   50.8340 C.1     1  ZINC000746432885    0.1900
     20 N20        -3.9351    3.1825   51.0647 N.1     1  ZINC000746432885   -0.3900
     21 N21        -7.1411    0.5271   51.6953 N.2     1  ZINC000746432885   -0.2800
     22 C22        -7.7149    0.2089   52.8272 C.2     1  ZINC000746432885    0.0700
     23 C23       -13.0169   -1.0106   58.1734 C.ar    1  ZINC000746432885   -0.0500
     24 C24       -13.2851   -1.8381   57.0988 C.ar    1  ZINC000746432885   -0.1500
     25 C25       -14.3067   -2.7666   57.1763 C.ar    1  ZINC000746432885   -0.0700
     26 C26       -15.0622   -2.8695   58.3283 C.ar    1  ZINC000746432885   -0.2000
     27 C27       -14.7951   -2.0402   59.4079 C.ar    1  ZINC000746432885    0.1300
     28 O28       -15.5369   -2.1394   60.5423 O.3     1  ZINC000746432885   -0.3200
     29 C29       -14.8295   -2.3740   61.7615 C.3     1  ZINC000746432885    0.0300
     30 C30       -13.7661   -1.1130   59.3295 C.ar    1  ZINC000746432885   -0.1300
     31 C31       -10.8744    0.5037   60.3103 C.ar    1  ZINC000746432885   -0.1300
     32 H32        -9.8276    2.9010   61.5707 H       1  ZINC000746432885    0.0600
     33 H33        -9.3539    2.8151   63.2844 H       1  ZINC000746432885    0.1000
     34 H34        -8.2605    2.1904   62.0264 H       1  ZINC000746432885    0.0600
     35 H35        -8.3020   -0.9788   61.9272 H       1  ZINC000746432885    0.1300
     36 H36        -8.3444   -2.3658   59.8941 H       1  ZINC000746432885    0.1300
     37 H37        -9.9988   -1.9144   58.1286 H       1  ZINC000746432885    0.1200
     38 H38       -12.3100    1.0027   58.2141 H       1  ZINC000746432885    0.1200
     39 H39       -11.4737   -0.8342   56.1807 H       1  ZINC000746432885    0.4200
     40 H40        -8.2690    2.0983   55.4488 H       1  ZINC000746432885    0.4200
     41 H41        -7.6313    3.4814   53.0215 H       1  ZINC000746432885    0.1900
     42 H42        -6.5110    2.1171   49.6108 H       1  ZINC000746432885    0.1300
     43 H43        -6.9792    3.6319   50.4199 H       1  ZINC000746432885    0.1500
     44 H44        -7.9374   -0.7925   53.1647 H       1  ZINC000746432885    0.2100
     45 H45       -12.6958   -1.7590   56.1972 H       1  ZINC000746432885    0.1200
     46 H46       -14.5145   -3.4117   56.3354 H       1  ZINC000746432885    0.1300
     47 H47       -15.8603   -3.5946   58.3882 H       1  ZINC000746432885    0.1300
     48 H48       -15.5384   -2.4318   62.5875 H       1  ZINC000746432885    0.1000
     49 H49       -14.2799   -3.3123   61.6880 H       1  ZINC000746432885    0.0600
     50 H50       -14.1306   -1.5565   61.9391 H       1  ZINC000746432885    0.0600
     51 H51       -13.5561   -0.4663   60.1686 H       1  ZINC000746432885    0.1400
     52 H52       -11.5838    1.3099   60.4254 H       1  ZINC000746432885    0.1300
@<TRIPOS>BOND
     1     1     2    1
     2     1    32    1
     3     1    33    1
     4     1    34    1
     5     2     3    1
     6     3    31   ar
     7     3     4   ar
     8     4     5   ar
     9     4    35    1
    10     5     6   ar
    11     5    36    1
    12     6     7   ar
    13     6    37    1
    14     7     8    1
    15     7    31   ar
    16     8     9    1
    17     8    23    1
    18     8    38    1
    19     9    10   am
    20     9    39    1
    21    10    11    2
    22    10    12    1
    23    12    13    2
    24    12    14   am
    25    14    15    1
    26    14    40    1
    27    15    22    1
    28    15    16    2
    29    16    17    1
    30    16    41    1
    31    17    18    1
    32    17    21    1
    33    18    19    1
    34    18    42    1
    35    18    43    1
    36    19    20    3
    37    21    22    2
    38    22    44    1
    39    23    30   ar
    40    23    24   ar
    41    24    25   ar
    42    24    45    1
    43    25    26   ar
    44    25    46    1
    45    26    27   ar
    46    26    47    1
    47    27    28    1
    48    27    30   ar
    49    28    29    1
    50    29    48    1
    51    29    49    1
    52    29    50    1
    53    30    51    1
    54    31    52    1
@<TRIPOS>SUBSTRUCTURE
     1 ZINC000746432885        1 TEMP              0 ****  ****    0 ROOT


##########                                Name:    ZINC000745364361
##########                DOCK_Rotatable_Bonds:                   8
##########                         Heavy_Atoms:                  29
##########                    Molecular_Weight:             398.434
##########                DOCK_Rotatable_Bonds:                   8
##########                       Formal_Charge:          0.00999923
##########                     HBond_Acceptors:                   7
##########                        HBond_Donors:                   1
##########                         Heavy_Atoms:                  29
##########                          Grid_Score:          -29.792267
##########                     Grid_vdw_energy:          -27.822374
##########                      Grid_es_energy:           -1.969892
##########           Internal_energy_repulsive:           10.247256

@<TRIPOS>MOLECULE
ZINC000745364361
 52 54 1 0 0
SMALL
USER_CHARGES


@<TRIPOS>ATOM
      1 C1         -5.6572    2.2404   50.2270 C.3     1  ZINC000745364361   -0.1700
      2 C2         -6.0748    2.9595   51.5114 C.3     1  ZINC000745364361    0.0700
      3 H3         -6.2287    4.0179   51.3015 H       1  ZINC000745364361    0.1100
      4 O4         -5.0317    2.8108   52.5104 O.3     1  ZINC000745364361   -0.3200
      5 C5         -4.1299    3.8008   52.6018 C.2     1  ZINC000745364361    0.4700
      6 O6         -4.3744    4.8861   52.1303 O.2     1  ZINC000745364361   -0.4900
      7 C7         -2.8125    3.5587   53.2925 C.3     1  ZINC000745364361   -0.0400
      8 H8         -2.5170    2.5183   53.1571 H       1  ZINC000745364361    0.1200
      9 C9         -1.7451    4.4746   52.6902 C.3     1  ZINC000745364361   -0.1400
     10 C10        -2.9551    3.8530   54.7636 C.ar    1  ZINC000745364361   -0.0500
     11 C11        -3.7982    4.8630   55.1875 C.ar    1  ZINC000745364361   -0.1000
     12 C12        -3.9299    5.1342   56.5369 C.ar    1  ZINC000745364361   -0.0900
     13 C13        -3.2189    4.3956   57.4633 C.ar    1  ZINC000745364361   -0.1500
     14 C14        -2.3744    3.3831   57.0397 C.ar    1  ZINC000745364361    0.1000
     15 F15        -1.6786    2.6604   57.9445 F       1  ZINC000745364361   -0.1400
     16 C16        -2.2472    3.1091   55.6887 C.ar    1  ZINC000745364361   -0.1400
     17 C17        -7.3560    2.3586   52.0296 C.2     1  ZINC000745364361    0.5200
     18 O18        -8.4246    2.8080   51.6725 O.2     1  ZINC000745364361   -0.5000
     19 N19        -7.3145    1.3219   52.8898 N.am    1  ZINC000745364361   -0.6700
     20 C20        -8.5054    0.7634   53.3715 C.ar    1  ZINC000745364361    0.1200
     21 C21        -9.0030    1.1504   54.6089 C.ar    1  ZINC000745364361   -0.1100
     22 C22       -10.1766    0.6000   55.0836 C.ar    1  ZINC000745364361   -0.1400
     23 C23       -10.8598   -0.3404   54.3237 C.ar    1  ZINC000745364361    0.1500
     24 N24       -12.0504   -0.8992   54.8056 N.am    1  ZINC000745364361   -0.5600
     25 C25       -12.1446   -2.2092   55.4606 C.3     1  ZINC000745364361    0.0900
     26 C26       -13.5061   -2.2081   56.1904 C.3     1  ZINC000745364361   -0.1300
     27 C27       -14.3110   -1.1859   55.3548 C.3     1  ZINC000745364361   -0.1500
     28 C28       -13.2524   -0.3020   54.7329 C.2     1  ZINC000745364361    0.5200
     29 O29       -13.4594    0.7843   54.2345 O.2     1  ZINC000745364361   -0.5100
     30 C30       -10.3628   -0.7263   53.0857 C.ar    1  ZINC000745364361   -0.1400
     31 C31        -9.1912   -0.1730   52.6093 C.ar    1  ZINC000745364361   -0.0900
     32 H32        -4.7306    2.6750   49.8522 H       1  ZINC000745364361    0.0800
     33 H33        -5.5033    1.1819   50.4369 H       1  ZINC000745364361    0.0800
     34 H34        -6.4402    2.3520   49.4771 H       1  ZINC000745364361    0.0800
     35 H35        -2.0405    5.5149   52.8257 H       1  ZINC000745364361    0.0700
     36 H36        -0.7923    4.2995   53.1898 H       1  ZINC000745364361    0.0800
     37 H37        -1.6419    4.2617   51.6263 H       1  ZINC000745364361    0.0800
     38 H38        -4.3540    5.4411   54.4642 H       1  ZINC000745364361    0.1300
     39 H39        -4.5887    5.9239   56.8670 H       1  ZINC000745364361    0.1400
     40 H40        -3.3215    4.6080   58.5171 H       1  ZINC000745364361    0.1400
     41 H41        -1.5891    2.3195   55.3573 H       1  ZINC000745364361    0.1400
     42 H42        -6.4600    0.9626   53.1755 H       1  ZINC000745364361    0.4100
     43 H43        -8.4718    1.8818   55.2000 H       1  ZINC000745364361    0.1300
     44 H44       -10.5633    0.9004   56.0462 H       1  ZINC000745364361    0.1600
     45 H45       -12.1160   -3.0057   54.7169 H       1  ZINC000745364361    0.0800
     46 H46       -11.3326   -2.3320   56.1772 H       1  ZINC000745364361    0.0900
     47 H47       -13.9696   -3.1939   56.1528 H       1  ZINC000745364361    0.1000
     48 H48       -13.3961   -1.8694   57.2206 H       1  ZINC000745364361    0.0900
     49 H49       -14.8897   -1.6947   54.5839 H       1  ZINC000745364361    0.1100
     50 H50       -14.9651   -0.5978   55.9984 H       1  ZINC000745364361    0.1100
     51 H51       -10.8942   -1.4574   52.4945 H       1  ZINC000745364361    0.1300
     52 H52        -8.8047   -0.4732   51.6465 H       1  ZINC000745364361    0.1400
@<TRIPOS>BOND
     1     1     2    1
     2     1    32    1
     3     1    33    1
     4     1    34    1
     5     2     3    1
     6     2     4    1
     7     2    17    1
     8     4     5    1
     9     5     6    2
    10     5     7    1
    11     7     8    1
    12     7     9    1
    13     7    10    1
    14     9    35    1
    15     9    36    1
    16     9    37    1
    17    10    16   ar
    18    10    11   ar
    19    11    12   ar
    20    11    38    1
    21    12    13   ar
    22    12    39    1
    23    13    14   ar
    24    13    40    1
    25    14    15    1
    26    14    16   ar
    27    16    41    1
    28    17    18    2
    29    17    19   am
    30    19    20    1
    31    19    42    1
    32    20    31   ar
    33    20    21   ar
    34    21    22   ar
    35    21    43    1
    36    22    23   ar
    37    22    44    1
    38    23    24    1
    39    23    30   ar
    40    24    28   am
    41    24    25    1
    42    25    26    1
    43    25    45    1
    44    25    46    1
    45    26    27    1
    46    26    47    1
    47    26    48    1
    48    27    28    1
    49    27    49    1
    50    27    50    1
    51    28    29    2
    52    30    31   ar
    53    30    51    1
    54    31    52    1
@<TRIPOS>SUBSTRUCTURE
     1 ZINC000745364361        1 TEMP              0 ****  ****    0 ROOT


##########                                Name:    ZINC000466160459
##########                DOCK_Rotatable_Bonds:                   9
##########                         Heavy_Atoms:                  30
##########                    Molecular_Weight:             420.512
##########                DOCK_Rotatable_Bonds:                   9
##########                       Formal_Charge:          -0.0300007
##########                     HBond_Acceptors:                  10
##########                        HBond_Donors:                   2
##########                         Heavy_Atoms:                  30
##########                          Grid_Score:          -29.773481
##########                     Grid_vdw_energy:          -29.767849
##########                      Grid_es_energy:           -0.005632
##########           Internal_energy_repulsive:           99.933113

@<TRIPOS>MOLECULE
ZINC000466160459
 62 64 1 0 0
SMALL
USER_CHARGES


@<TRIPOS>ATOM
      1 C1          2.8772    2.5790   55.3405 C.3     1  ZINC000466160459    0.0300
      2 O2          2.5291    2.8488   53.9810 O.3     1  ZINC000466160459   -0.3900
      3 C3          3.5962    3.3987   53.2059 C.3     1  ZINC000466160459    0.0500
      4 C4          3.1055    3.6693   51.7822 C.3     1  ZINC000466160459    0.1200
      5 N5          2.6667    2.4129   51.1698 N.am    1  ZINC000466160459   -0.7300
      6 C6          3.5523    1.6380   50.5127 C.2     1  ZINC000466160459    0.5200
      7 O7          4.7129    1.9803   50.4296 O.2     1  ZINC000466160459   -0.5200
      8 C8          3.1005    0.3464   49.8813 C.3     1  ZINC000466160459   -0.1300
      9 H9          3.2042   -0.4660   50.6006 H       1  ZINC000466160459    0.1100
     10 C10         3.9604    0.0515   48.6502 C.3     1  ZINC000466160459   -0.1000
     11 C11         3.8418    1.2073   47.6542 C.3     1  ZINC000466160459   -0.1500
     12 C12         2.3835    1.3410   47.2045 C.3     1  ZINC000466160459    0.1600
     13 H13         2.0900    0.4515   46.6472 H       1  ZINC000466160459    0.0700
     14 C14         2.2323    2.5767   46.3151 C.3     1  ZINC000466160459   -0.1400
     15 N15         1.5327    1.4800   48.3943 N.am    1  ZINC000466160459   -0.6200
     16 C16         0.6754    2.5137   48.5085 C.2     1  ZINC000466160459    0.7100
     17 O17         0.6007    3.3423   47.6219 O.2     1  ZINC000466160459   -0.5500
     18 N18        -0.0992    2.6288   49.6054 N.am    1  ZINC000466160459   -0.7300
     19 C19        -1.0310    3.7523   49.7296 C.3     1  ZINC000466160459    0.1600
     20 H20        -1.0565    4.3069   48.7916 H       1  ZINC000466160459    0.1300
     21 C21        -0.5638    4.6784   50.8553 C.3     1  ZINC000466160459   -0.1400
     22 C22        -0.7986    3.9698   52.1947 C.3     1  ZINC000466160459   -0.1400
     23 C23        -2.3052    3.8403   52.4228 C.3     1  ZINC000466160459    0.1100
     24 N24        -2.9501    3.2587   51.2522 N.am    1  ZINC000466160459   -0.5200
     25 C25        -4.2231    2.6955   51.4155 C.2     1  ZINC000466160459    0.2800
     26 N26        -4.5544    1.4518   51.1598 N.2     1  ZINC000466160459   -0.2600
     27 N27        -5.9144    1.2926   51.4546 N.pl3   1  ZINC000466160459   -0.3800
     28 C28        -6.6871    0.0562   51.3112 C.3     1  ZINC000466160459    0.1000
     29 C29        -6.3885    2.4773   51.8944 C.2     1  ZINC000466160459    0.0700
     30 C30        -5.3655    3.3619   51.8871 C.2     1  ZINC000466160459   -0.2900
     31 C31        -2.4047    3.2294   50.0375 C.2     1  ZINC000466160459    0.4900
     32 O32        -3.0529    2.7551   49.1286 O.2     1  ZINC000466160459   -0.4700
     33 C33         1.6335    0.4701   49.4577 C.3     1  ZINC000466160459    0.1200
     34 H34         2.0142    2.1639   55.8610 H       1  ZINC000466160459    0.0900
     35 H35         3.6983    1.8627   55.3699 H       1  ZINC000466160459    0.0400
     36 H36         3.1847    3.5044   55.8273 H       1  ZINC000466160459    0.0400
     37 H37         3.9306    4.3321   53.6585 H       1  ZINC000466160459    0.0600
     38 H38         4.4254    2.6918   53.1762 H       1  ZINC000466160459    0.0700
     39 H39         2.2708    4.3696   51.8125 H       1  ZINC000466160459    0.0800
     40 H40         3.9170    4.0965   51.1931 H       1  ZINC000466160459    0.0800
     41 H41         1.7387    2.1385   51.2373 H       1  ZINC000466160459    0.4000
     42 H42         5.0015   -0.0616   48.9530 H       1  ZINC000466160459    0.0700
     43 H43         3.6172   -0.8699   48.1798 H       1  ZINC000466160459    0.0700
     44 H44         4.1616    2.1335   48.1319 H       1  ZINC000466160459    0.1000
     45 H45         4.4727    1.0075   46.7881 H       1  ZINC000466160459    0.0700
     46 H46         2.9444    2.5211   45.4918 H       1  ZINC000466160459    0.0400
     47 H47         1.2185    2.6155   45.9165 H       1  ZINC000466160459    0.0800
     48 H48         2.4261    3.4737   46.9032 H       1  ZINC000466160459    0.0600
     49 H49        -0.0397    1.9675   50.3127 H       1  ZINC000466160459    0.3900
     50 H50         0.4978    4.8947   50.7357 H       1  ZINC000466160459    0.0900
     51 H51        -1.1335    5.6072   50.8266 H       1  ZINC000466160459    0.0900
     52 H52        -0.3462    2.9784   52.1683 H       1  ZINC000466160459    0.0700
     53 H53        -0.3558    4.5550   53.0006 H       1  ZINC000466160459    0.1000
     54 H54        -2.4851    3.2020   53.2877 H       1  ZINC000466160459    0.0900
     55 H55        -2.7268    4.8272   52.6133 H       1  ZINC000466160459    0.0800
     56 H56        -6.6387   -0.5123   52.2399 H       1  ZINC000466160459    0.0700
     57 H57        -7.7258    0.3007   51.0885 H       1  ZINC000466160459    0.0900
     58 H58        -6.2718   -0.5396   50.4984 H       1  ZINC000466160459    0.0900
     59 H59        -7.4035    2.6816   52.2017 H       1  ZINC000466160459    0.1800
     60 H60        -5.4195    4.3989   52.1840 H       1  ZINC000466160459    0.1500
     61 H61         1.2787   -0.4905   49.0841 H       1  ZINC000466160459    0.0900
     62 H62         1.0305    0.7776   50.3120 H       1  ZINC000466160459    0.0700
@<TRIPOS>BOND
     1     1     2    1
     2     1    34    1
     3     1    35    1
     4     1    36    1
     5     2     3    1
     6     3     4    1
     7     3    37    1
     8     3    38    1
     9     4     5    1
    10     4    39    1
    11     4    40    1
    12     5     6   am
    13     5    41    1
    14     6     7    2
    15     6     8    1
    16     8     9    1
    17     8    33    1
    18     8    10    1
    19    10    11    1
    20    10    42    1
    21    10    43    1
    22    11    12    1
    23    11    44    1
    24    11    45    1
    25    12    13    1
    26    12    14    1
    27    12    15    1
    28    14    46    1
    29    14    47    1
    30    14    48    1
    31    15    16   am
    32    15    33    1
    33    16    17    2
    34    16    18   am
    35    18    19    1
    36    18    49    1
    37    19    20    1
    38    19    31    1
    39    19    21    1
    40    21    22    1
    41    21    50    1
    42    21    51    1
    43    22    23    1
    44    22    52    1
    45    22    53    1
    46    23    24    1
    47    23    54    1
    48    23    55    1
    49    24    25    1
    50    24    31   am
    51    25    30    1
    52    25    26    2
    53    26    27    1
    54    27    28    1
    55    27    29    1
    56    28    56    1
    57    28    57    1
    58    28    58    1
    59    29    30    2
    60    29    59    1
    61    30    60    1
    62    31    32    2
    63    33    61    1
    64    33    62    1
@<TRIPOS>SUBSTRUCTURE
     1 ZINC000466160459        1 TEMP              0 ****  ****    0 ROOT


##########                                Name:    ZINC000938043669
##########                DOCK_Rotatable_Bonds:                   7
##########                         Heavy_Atoms:                  27
##########                    Molecular_Weight:             372.439
##########                DOCK_Rotatable_Bonds:                   7
##########                       Formal_Charge:           0.0499999
##########                     HBond_Acceptors:                   6
##########                        HBond_Donors:                   1
##########                         Heavy_Atoms:                  27
##########                          Grid_Score:          -29.764376
##########                     Grid_vdw_energy:          -29.164133
##########                      Grid_es_energy:           -0.600243
##########           Internal_energy_repulsive:           14.701202

@<TRIPOS>MOLECULE
ZINC000938043669
 52 55 1 0 0
SMALL
USER_CHARGES


@<TRIPOS>ATOM
      1 O1         -5.9703    4.1697   54.7970 O.2     1  ZINC000938043669   -0.5000
      2 C2         -6.4663    3.5212   53.9002 C.2     1  ZINC000938043669    0.5300
      3 C3         -7.9601    3.3302   53.8456 C.3     1  ZINC000938043669    0.0500
      4 O4         -8.2817    1.9845   54.2033 O.3     1  ZINC000938043669   -0.2800
      5 C5         -9.3023    1.3932   53.5272 C.ar    1  ZINC000938043669    0.0900
      6 C6         -9.1461    0.1158   53.0122 C.ar    1  ZINC000938043669   -0.1800
      7 C7        -10.1851   -0.4838   52.3256 C.ar    1  ZINC000938043669   -0.0900
      8 C8        -11.3802    0.1886   52.1517 C.ar    1  ZINC000938043669   -0.1300
      9 C9        -11.5402    1.4634   52.6634 C.ar    1  ZINC000938043669   -0.1100
     10 C10       -10.5060    2.0660   53.3561 C.ar    1  ZINC000938043669    0.0800
     11 F11       -10.6620    3.3112   53.8563 F       1  ZINC000938043669   -0.1300
     12 N12        -5.6821    2.9760   52.9492 N.am    1  ZINC000938043669   -0.6200
     13 C13        -6.1495    2.1748   51.8086 C.3     1  ZINC000938043669    0.1000
     14 C14        -4.9066    1.7910   50.9783 C.3     1  ZINC000938043669   -0.1400
     15 C15        -3.8699    2.8715   51.3848 C.3     1  ZINC000938043669    0.1300
     16 H16        -4.0179    3.7888   50.8149 H       1  ZINC000938043669    0.1100
     17 N17        -2.5017    2.3727   51.2255 N.am    1  ZINC000938043669   -0.7200
     18 C18        -1.8389    2.5805   50.0705 C.2     1  ZINC000938043669    0.5200
     19 O19        -2.3746    3.1816   49.1635 O.2     1  ZINC000938043669   -0.5200
     20 C20        -0.4321    2.0659   49.9060 C.3     1  ZINC000938043669   -0.1000
     21 H21        -0.1717    1.4415   50.7605 H       1  ZINC000938043669    0.1000
     22 C22         0.5367    3.2478   49.8241 C.3     1  ZINC000938043669   -0.1100
     23 C23         1.2798    3.2104   48.4826 C.3     1  ZINC000938043669   -0.0600
     24 H24         1.9384    4.0730   48.3815 H       1  ZINC000938043669    0.0800
     25 C25         0.2388    3.1932   47.3732 C.2     1  ZINC000938043669   -0.1800
     26 C26        -0.6038    2.1653   47.4443 C.2     1  ZINC000938043669   -0.1300
     27 C27        -0.3387    1.2360   48.6191 C.3     1  ZINC000938043669   -0.0400
     28 H28        -1.0508    0.4108   48.6275 H       1  ZINC000938043669    0.0900
     29 C29         1.0984    0.7137   48.4853 C.3     1  ZINC000938043669   -0.1200
     30 C30         2.0809    1.9029   48.4113 C.3     1  ZINC000938043669   -0.1100
     31 C31        -4.2140    3.0898   52.8770 C.3     1  ZINC000938043669    0.1000
     32 H32        -8.4400    4.0162   54.5437 H       1  ZINC000938043669    0.1000
     33 H33        -8.3157    3.5323   52.8352 H       1  ZINC000938043669    0.1000
     34 H34        -8.2127   -0.4107   53.1471 H       1  ZINC000938043669    0.1400
     35 H35       -10.0630   -1.4790   51.9242 H       1  ZINC000938043669    0.1300
     36 H36       -12.1903   -0.2824   51.6148 H       1  ZINC000938043669    0.1400
     37 H37       -12.4748    1.9868   52.5258 H       1  ZINC000938043669    0.1500
     38 H38        -6.6479    1.2743   52.1676 H       1  ZINC000938043669    0.0800
     39 H39        -6.8356    2.7627   51.1990 H       1  ZINC000938043669    0.0800
     40 H40        -4.5534    0.7962   51.2499 H       1  ZINC000938043669    0.0900
     41 H41        -5.1234    1.8465   49.9115 H       1  ZINC000938043669    0.1000
     42 H42        -2.0727    1.8931   51.9513 H       1  ZINC000938043669    0.4000
     43 H43        -0.0211    4.1807   49.9043 H       1  ZINC000938043669    0.0700
     44 H44         1.2567    3.1842   50.6400 H       1  ZINC000938043669    0.0800
     45 H45         0.1881    3.9452   46.5997 H       1  ZINC000938043669    0.1200
     46 H46        -1.4019    2.0062   46.7343 H       1  ZINC000938043669    0.1200
     47 H47         1.3447    0.1019   49.3531 H       1  ZINC000938043669    0.0700
     48 H48         1.1830    0.1113   47.5808 H       1  ZINC000938043669    0.0700
     49 H49         2.6271    1.8646   47.4688 H       1  ZINC000938043669    0.0700
     50 H50         2.7849    1.8446   49.2413 H       1  ZINC000938043669    0.0700
     51 H51        -3.8904    4.0792   53.2001 H       1  ZINC000938043669    0.0900
     52 H52        -3.7484    2.3184   53.4904 H       1  ZINC000938043669    0.0700
@<TRIPOS>BOND
     1     1     2    2
     2     2     3    1
     3     2    12   am
     4     3     4    1
     5     3    32    1
     6     3    33    1
     7     4     5    1
     8     5    10   ar
     9     5     6   ar
    10     6     7   ar
    11     6    34    1
    12     7     8   ar
    13     7    35    1
    14     8     9   ar
    15     8    36    1
    16     9    10   ar
    17     9    37    1
    18    10    11    1
    19    12    31    1
    20    12    13    1
    21    13    14    1
    22    13    38    1
    23    13    39    1
    24    14    15    1
    25    14    40    1
    26    14    41    1
    27    15    16    1
    28    15    17    1
    29    15    31    1
    30    17    18   am
    31    17    42    1
    32    18    19    2
    33    18    20    1
    34    20    21    1
    35    20    27    1
    36    20    22    1
    37    22    23    1
    38    22    43    1
    39    22    44    1
    40    23    24    1
    41    23    30    1
    42    23    25    1
    43    25    26    2
    44    25    45    1
    45    26    27    1
    46    26    46    1
    47    27    28    1
    48    27    29    1
    49    29    30    1
    50    29    47    1
    51    29    48    1
    52    30    49    1
    53    30    50    1
    54    31    51    1
    55    31    52    1
@<TRIPOS>SUBSTRUCTURE
     1 ZINC000938043669        1 TEMP              0 ****  ****    0 ROOT


##########                                Name:    ZINC000588570917
##########                DOCK_Rotatable_Bonds:                   7
##########                         Heavy_Atoms:                  25
##########                    Molecular_Weight:             366.481
##########                DOCK_Rotatable_Bonds:                   7
##########                       Formal_Charge:          -0.0100006
##########                     HBond_Acceptors:                   7
##########                        HBond_Donors:                   1
##########                         Heavy_Atoms:                  25
##########                          Grid_Score:          -29.726810
##########                     Grid_vdw_energy:          -27.615057
##########                      Grid_es_energy:           -2.111753
##########           Internal_energy_repulsive:           17.737312

@<TRIPOS>MOLECULE
ZINC000588570917
 51 52 1 0 0
SMALL
USER_CHARGES


@<TRIPOS>ATOM
      1 C1          0.0131    0.1445   61.6488 C.3     1  ZINC000588570917   -0.1300
      2 C2         -0.2675    0.7485   60.2971 C.2     1  ZINC000588570917   -0.0500
      3 C3         -0.2119    2.0674   60.1334 C.2     1  ZINC000588570917   -0.2000
      4 C4          0.1301    2.9578   61.3002 C.3     1  ZINC000588570917   -0.0900
      5 C5         -1.1517    3.3395   62.0432 C.3     1  ZINC000588570917   -0.1500
      6 C6         -0.4841    2.6568   58.8138 C.2     1  ZINC000588570917    0.5600
      7 O7         -0.5042    3.8655   58.6801 O.2     1  ZINC000588570917   -0.5100
      8 N8         -0.7114    1.8575   57.7527 N.am    1  ZINC000588570917   -0.6800
      9 C9         -0.9703    2.4178   56.4980 C.ar    1  ZINC000588570917    0.2100
     10 C10         0.0168    3.1418   55.8419 C.ar    1  ZINC000588570917   -0.1700
     11 C11        -0.2420    3.6933   54.6025 C.ar    1  ZINC000588570917    0.0000
     12 C12        -1.4824    3.5254   54.0147 C.ar    1  ZINC000588570917   -0.7000
     13 S13        -1.8085    4.2308   52.4333 S.o2    1  ZINC000588570917    2.6900
     14 O14        -3.1840    3.9957   52.1649 O.2     1  ZINC000588570917   -0.9500
     15 O15        -1.2298    5.5285   52.4457 O.2     1  ZINC000588570917   -0.9500
     16 N16        -0.9574    3.3500   51.3187 N.am    1  ZINC000588570917   -1.0000
     17 C17        -1.6445    2.6505   50.2215 C.3     1  ZINC000588570917    0.0900
     18 C18        -0.9567    3.0250   48.9036 C.3     1  ZINC000588570917    0.0700
     19 H19        -1.1341    4.0783   48.6868 H       1  ZINC000588570917    0.0700
     20 C20        -1.5229    2.1676   47.7700 C.3     1  ZINC000588570917   -0.1500
     21 O21         0.4487    2.7921   49.0234 O.3     1  ZINC000588570917   -0.3700
     22 C22         1.0911    3.5897   50.0210 C.3     1  ZINC000588570917    0.0800
     23 H23         2.1616    3.3845   50.0174 H       1  ZINC000588570917    0.1200
     24 C24         0.8537    5.0712   49.7217 C.3     1  ZINC000588570917   -0.1900
     25 C25         0.5087    3.2488   51.3927 C.3     1  ZINC000588570917    0.0900
     26 C26        -2.4673    2.8048   54.6649 C.ar    1  ZINC000588570917    0.0000
     27 C27        -2.2134    2.2465   55.9024 C.ar    1  ZINC000588570917   -0.1400
     28 H28        -0.0794   -0.9399   61.5885 H       1  ZINC000588570917    0.0600
     29 H29         1.0242    0.4060   61.9608 H       1  ZINC000588570917    0.0800
     30 H30        -0.7024    0.5303   62.3750 H       1  ZINC000588570917    0.0800
     31 H31        -0.5140    0.1106   59.4612 H       1  ZINC000588570917    0.1300
     32 H32         0.7989    2.4276   61.9781 H       1  ZINC000588570917    0.0700
     33 H33         0.6217    3.8602   60.9366 H       1  ZINC000588570917    0.0800
     34 H34        -1.6434    2.4372   62.4067 H       1  ZINC000588570917    0.0500
     35 H35        -0.9045    3.9836   62.8871 H       1  ZINC000588570917    0.0600
     36 H36        -1.8206    3.8697   61.3652 H       1  ZINC000588570917    0.0600
     37 H37        -0.6954    0.8936   57.8594 H       1  ZINC000588570917    0.4100
     38 H38         0.9857    3.2736   56.3006 H       1  ZINC000588570917    0.1400
     39 H39         0.5250    4.2567   54.0919 H       1  ZINC000588570917    0.1400
     40 H40        -1.5805    1.5733   50.3757 H       1  ZINC000588570917    0.0900
     41 H41        -2.6904    2.9558   50.1893 H       1  ZINC000588570917    0.1000
     42 H42        -2.5952    2.3431   47.6824 H       1  ZINC000588570917    0.0700
     43 H43        -1.0335    2.4344   46.8333 H       1  ZINC000588570917    0.0700
     44 H44        -1.3437    1.1144   47.9864 H       1  ZINC000588570917    0.0700
     45 H45        -0.2169    5.2760   49.7272 H       1  ZINC000588570917    0.0600
     46 H46         1.3437    5.6786   50.4826 H       1  ZINC000588570917    0.0700
     47 H47         1.2650    5.3145   48.7421 H       1  ZINC000588570917    0.0700
     48 H48         0.8894    3.9480   52.1372 H       1  ZINC000588570917    0.1000
     49 H49         0.7876    2.2314   51.6674 H       1  ZINC000588570917    0.0900
     50 H50        -3.4350    2.6755   54.2032 H       1  ZINC000588570917    0.1400
     51 H51        -2.9829    1.6835   56.4096 H       1  ZINC000588570917    0.1500
@<TRIPOS>BOND
     1     1     2    1
     2     1    28    1
     3     1    29    1
     4     1    30    1
     5     2     3    2
     6     2    31    1
     7     3     4    1
     8     3     6    1
     9     4     5    1
    10     4    32    1
    11     4    33    1
    12     5    34    1
    13     5    35    1
    14     5    36    1
    15     6     7    2
    16     6     8   am
    17     8     9    1
    18     8    37    1
    19     9    27   ar
    20     9    10   ar
    21    10    11   ar
    22    10    38    1
    23    11    12   ar
    24    11    39    1
    25    12    13    1
    26    12    26   ar
    27    13    14    2
    28    13    15    2
    29    13    16   am
    30    16    25    1
    31    16    17    1
    32    17    18    1
    33    17    40    1
    34    17    41    1
    35    18    19    1
    36    18    20    1
    37    18    21    1
    38    20    42    1
    39    20    43    1
    40    20    44    1
    41    21    22    1
    42    22    23    1
    43    22    24    1
    44    22    25    1
    45    24    45    1
    46    24    46    1
    47    24    47    1
    48    25    48    1
    49    25    49    1
    50    26    27   ar
    51    26    50    1
    52    27    51    1
@<TRIPOS>SUBSTRUCTURE
     1 ZINC000588570917        1 TEMP              0 ****  ****    0 ROOT


##########                                Name:    ZINC000751548479
##########                DOCK_Rotatable_Bonds:                   9
##########                         Heavy_Atoms:                  27
##########                    Molecular_Weight:             389.407
##########                DOCK_Rotatable_Bonds:                   9
##########                       Formal_Charge:           0.0199995
##########                     HBond_Acceptors:                   9
##########                        HBond_Donors:                   2
##########                         Heavy_Atoms:                  27
##########                          Grid_Score:          -29.725979
##########                     Grid_vdw_energy:          -29.697578
##########                      Grid_es_energy:           -0.028401
##########           Internal_energy_repulsive:           16.303854

@<TRIPOS>MOLECULE
ZINC000751548479
 43 44 1 0 0
SMALL
USER_CHARGES


@<TRIPOS>ATOM
      1 C1         -3.1702    3.5805   57.0419 C.3     1  ZINC000751548479   -0.1600
      2 C2         -4.2249    2.7432   56.3154 C.3     1  ZINC000751548479    0.0800
      3 O3         -4.5827    3.3927   55.0671 O.3     1  ZINC000751548479   -0.3600
      4 C4         -3.7348    3.2378   54.0325 C.2     1  ZINC000751548479    0.6500
      5 O5         -2.7677    2.5106   54.1432 O.2     1  ZINC000751548479   -0.5400
      6 N6         -3.9590    3.8894   52.8743 N.am    1  ZINC000751548479   -0.6500
      7 C7         -3.0798    3.7288   51.8013 C.ar    1  ZINC000751548479    0.2000
      8 C8         -1.7704    4.1760   51.9022 C.ar    1  ZINC000751548479   -0.1000
      9 C9         -0.8999    4.0181   50.8424 C.ar    1  ZINC000751548479   -0.1000
     10 C10        -1.3275    3.4105   49.6668 C.ar    1  ZINC000751548479    0.1300
     11 N11        -0.4378    3.2553   48.5979 N.am    1  ZINC000751548479   -1.0500
     12 S12         0.2248    1.7711   48.2808 S.o2    1  ZINC000751548479    2.6800
     13 O13         1.0688    1.4649   49.3823 O.2     1  ZINC000751548479   -0.9500
     14 O14        -0.8458    0.9341   47.8657 O.2     1  ZINC000751548479   -0.9400
     15 C15         1.2803    1.9592   46.8824 C.2     1  ZINC000751548479   -0.7500
     16 C16         1.0646    2.9394   46.0162 C.2     1  ZINC000751548479    0.0700
     17 C17         1.9510    3.0983   44.8443 C.ar    1  ZINC000751548479   -0.1100
     18 C18         3.0320    2.2347   44.6618 C.ar    1  ZINC000751548479   -0.0600
     19 C19         3.8558    2.3871   43.5661 C.ar    1  ZINC000751548479   -0.1600
     20 C20         3.6120    3.3957   42.6477 C.ar    1  ZINC000751548479    0.1200
     21 F21         4.4222    3.5409   41.5764 F       1  ZINC000751548479   -0.1300
     22 C22         2.5397    4.2555   42.8239 C.ar    1  ZINC000751548479   -0.1600
     23 C23         1.7065    4.1087   43.9133 C.ar    1  ZINC000751548479   -0.0500
     24 C24        -2.6313    2.9582   49.5514 C.ar    1  ZINC000751548479   -0.0600
     25 C25        -3.5165    3.1098   50.6207 C.ar    1  ZINC000751548479   -0.0300
     26 C26        -4.8661    2.6442   50.5091 C.1     1  ZINC000751548479    0.2500
     27 N27        -5.9367    2.2749   50.4205 N.1     1  ZINC000751548479   -0.4000
     28 H28        -3.5734    4.5714   57.2504 H       1  ZINC000751548479    0.0700
     29 H29        -2.9016    3.0929   57.9790 H       1  ZINC000751548479    0.0900
     30 H30        -2.2842    3.6734   56.4138 H       1  ZINC000751548479    0.0700
     31 H31        -3.8216    1.7522   56.1070 H       1  ZINC000751548479    0.0800
     32 H32        -5.1108    2.6502   56.9435 H       1  ZINC000751548479    0.0800
     33 H33        -4.7310    4.4699   52.7859 H       1  ZINC000751548479    0.4200
     34 H34        -1.4314    4.6492   52.8120 H       1  ZINC000751548479    0.1600
     35 H35         0.1182    4.3685   50.9266 H       1  ZINC000751548479    0.1700
     36 H36        -0.2091    4.0171   48.0427 H       1  ZINC000751548479    0.4300
     37 H37         2.1029    1.2760   46.7311 H       1  ZINC000751548479    0.1700
     38 H38         0.2411    3.6218   46.1670 H       1  ZINC000751548479    0.1500
     39 H39         3.2233    1.4488   45.3774 H       1  ZINC000751548479    0.1400
     40 H40         4.6927    1.7194   43.4240 H       1  ZINC000751548479    0.1400
     41 H41         2.3538    5.0398   42.1050 H       1  ZINC000751548479    0.1400
     42 H42         0.8710    4.7791   44.0496 H       1  ZINC000751548479    0.1400
     43 H43        -2.9617    2.4865   48.6377 H       1  ZINC000751548479    0.1500
@<TRIPOS>BOND
     1     1     2    1
     2     1    28    1
     3     1    29    1
     4     1    30    1
     5     2     3    1
     6     2    31    1
     7     2    32    1
     8     3     4    1
     9     4     5    2
    10     4     6   am
    11     6     7    1
    12     6    33    1
    13     7    25   ar
    14     7     8   ar
    15     8     9   ar
    16     8    34    1
    17     9    10   ar
    18     9    35    1
    19    10    11    1
    20    10    24   ar
    21    11    12   am
    22    11    36    1
    23    12    13    2
    24    12    14    2
    25    12    15    1
    26    15    16    2
    27    15    37    1
    28    16    17    1
    29    16    38    1
    30    17    23   ar
    31    17    18   ar
    32    18    19   ar
    33    18    39    1
    34    19    20   ar
    35    19    40    1
    36    20    21    1
    37    20    22   ar
    38    22    23   ar
    39    22    41    1
    40    23    42    1
    41    24    25   ar
    42    24    43    1
    43    25    26    1
    44    26    27    3
@<TRIPOS>SUBSTRUCTURE
     1 ZINC000751548479        1 TEMP              0 ****  ****    0 ROOT


##########                                Name:    ZINC000506156755
##########                DOCK_Rotatable_Bonds:                   7
##########                         Heavy_Atoms:                  30
##########                    Molecular_Weight:             400.434
##########                DOCK_Rotatable_Bonds:                   7
##########                       Formal_Charge:          -0.0200001
##########                     HBond_Acceptors:                   6
##########                        HBond_Donors:                   1
##########                         Heavy_Atoms:                  30
##########                          Grid_Score:          -29.721373
##########                     Grid_vdw_energy:          -28.933401
##########                      Grid_es_energy:           -0.787972
##########           Internal_energy_repulsive:           13.463535

@<TRIPOS>MOLECULE
ZINC000506156755
 50 53 1 0 0
SMALL
USER_CHARGES


@<TRIPOS>ATOM
      1 C1        -12.0306    0.6669   55.9349 C.3     1  ZINC000506156755   -0.1600
      2 C2        -10.7280   -0.1356   55.9306 C.3     1  ZINC000506156755    0.1900
      3 H3        -10.7379   -0.8398   55.0987 H       1  ZINC000506156755    0.1000
      4 N4        -10.6034   -0.8711   57.1915 N.am    1  ZINC000506156755   -0.7200
      5 C5        -11.1321   -2.1054   57.3068 C.2     1  ZINC000506156755    0.5000
      6 O6        -11.7125   -2.6067   56.3672 O.2     1  ZINC000506156755   -0.5200
      7 C7        -11.0023   -2.8627   58.6032 C.3     1  ZINC000506156755    0.0900
      8 N8        -10.5290   -1.9568   59.6526 N.am    1  ZINC000506156755   -0.5600
      9 C9         -9.2497   -1.8643   60.0582 C.2     1  ZINC000506156755    0.5800
     10 O10        -8.3185   -2.5087   59.6193 O.2     1  ZINC000506156755   -0.4600
     11 C11        -9.1668   -0.8466   61.1271 C.ar    1  ZINC000506156755   -0.1400
     12 C12        -8.1367   -0.3383   61.9013 C.ar    1  ZINC000506156755   -0.0400
     13 C13        -8.4052    0.6408   62.8456 C.ar    1  ZINC000506156755   -0.0900
     14 C14        -9.6924    1.1123   63.0192 C.ar    1  ZINC000506156755   -0.0900
     15 C15       -10.7334    0.6129   62.2515 C.ar    1  ZINC000506156755   -0.0400
     16 C16       -10.4802   -0.3656   61.3042 C.ar    1  ZINC000506156755   -0.1400
     17 C17       -11.3155   -1.1038   60.3335 C.2     1  ZINC000506156755    0.5800
     18 O18       -12.5119   -0.9649   60.1779 O.2     1  ZINC000506156755   -0.4600
     19 C19        -9.5595    0.8041   55.7795 C.ar    1  ZINC000506156755   -0.1200
     20 C20        -9.1278    1.5494   56.8592 C.ar    1  ZINC000506156755   -0.0800
     21 C21        -8.0555    2.4115   56.7214 C.ar    1  ZINC000506156755   -0.1400
     22 C22        -7.4125    2.5297   55.5032 C.ar    1  ZINC000506156755   -0.0800
     23 C23        -7.8403    1.7865   54.4200 C.ar    1  ZINC000506156755   -0.1900
     24 C24        -8.9127    0.9169   54.5569 C.ar    1  ZINC000506156755    0.1300
     25 O25        -9.3351    0.1844   53.4933 O.3     1  ZINC000506156755   -0.2500
     26 C26       -10.2658    0.7337   52.6696 C.ar    1  ZINC000506156755    0.0800
     27 C27       -10.6383    2.0608   52.8289 C.ar    1  ZINC000506156755   -0.1400
     28 C28       -11.5848    2.6168   51.9903 C.ar    1  ZINC000506156755   -0.1000
     29 C29       -12.1609    1.8520   50.9928 C.ar    1  ZINC000506156755   -0.1200
     30 C30       -11.7915    0.5293   50.8319 C.ar    1  ZINC000506156755   -0.1000
     31 C31       -10.8414   -0.0300   51.6641 C.ar    1  ZINC000506156755   -0.1200
     32 H32       -12.8757   -0.0127   56.0442 H       1  ZINC000506156755    0.0700
     33 H33       -12.0208    1.3711   56.7669 H       1  ZINC000506156755    0.0600
     34 H34       -12.1233    1.2141   54.9968 H       1  ZINC000506156755    0.0700
     35 H35       -10.1402   -0.4697   57.9434 H       1  ZINC000506156755    0.4000
     36 H36       -11.9735   -3.2695   58.8851 H       1  ZINC000506156755    0.1300
     37 H37       -10.2895   -3.6778   58.4780 H       1  ZINC000506156755    0.1300
     38 H38        -7.1288   -0.7034   61.7701 H       1  ZINC000506156755    0.1400
     39 H39        -7.6027    1.0374   63.4499 H       1  ZINC000506156755    0.1400
     40 H40        -9.8891    1.8748   63.7583 H       1  ZINC000506156755    0.1400
     41 H41       -11.7375    0.9854   62.3913 H       1  ZINC000506156755    0.1400
     42 H42        -9.6286    1.4592   57.8119 H       1  ZINC000506156755    0.1300
     43 H43        -7.7198    2.9937   57.5668 H       1  ZINC000506156755    0.1300
     44 H44        -6.5754    3.2040   55.3980 H       1  ZINC000506156755    0.1300
     45 H45        -7.3380    1.8794   53.4685 H       1  ZINC000506156755    0.1300
     46 H46       -10.1889    2.6585   53.6081 H       1  ZINC000506156755    0.1300
     47 H47       -11.8753    3.6496   52.1141 H       1  ZINC000506156755    0.1300
     48 H48       -12.9010    2.2884   50.3383 H       1  ZINC000506156755    0.1300
     49 H49       -12.2430   -0.0659   50.0519 H       1  ZINC000506156755    0.1300
     50 H50       -10.5530   -1.0630   51.5379 H       1  ZINC000506156755    0.1300
@<TRIPOS>BOND
     1     1     2    1
     2     1    32    1
     3     1    33    1
     4     1    34    1
     5     2     3    1
     6     2     4    1
     7     2    19    1
     8     4     5   am
     9     4    35    1
    10     5     6    2
    11     5     7    1
    12     7     8    1
    13     7    36    1
    14     7    37    1
    15     8    17   am
    16     8     9   am
    17     9    10    2
    18     9    11    1
    19    11    16   ar
    20    11    12   ar
    21    12    13   ar
    22    12    38    1
    23    13    14   ar
    24    13    39    1
    25    14    15   ar
    26    14    40    1
    27    15    16   ar
    28    15    41    1
    29    16    17    1
    30    17    18    2
    31    19    24   ar
    32    19    20   ar
    33    20    21   ar
    34    20    42    1
    35    21    22   ar
    36    21    43    1
    37    22    23   ar
    38    22    44    1
    39    23    24   ar
    40    23    45    1
    41    24    25    1
    42    25    26    1
    43    26    31   ar
    44    26    27   ar
    45    27    28   ar
    46    27    46    1
    47    28    29   ar
    48    28    47    1
    49    29    30   ar
    50    29    48    1
    51    30    31   ar
    52    30    49    1
    53    31    50    1
@<TRIPOS>SUBSTRUCTURE
     1 ZINC000506156755        1 TEMP              0 ****  ****    0 ROOT


##########                                Name:    ZINC001310073555
##########                DOCK_Rotatable_Bonds:                  12
##########                         Heavy_Atoms:                  27
##########                    Molecular_Weight:             380.484
##########                DOCK_Rotatable_Bonds:                  12
##########                       Formal_Charge:          0.00999888
##########                     HBond_Acceptors:                   7
##########                        HBond_Donors:                   2
##########                         Heavy_Atoms:                  27
##########                          Grid_Score:          -29.705744
##########                     Grid_vdw_energy:          -29.315434
##########                      Grid_es_energy:           -0.390311
##########           Internal_energy_repulsive:           54.039295

@<TRIPOS>MOLECULE
ZINC001310073555
 59 59 1 0 0
SMALL
USER_CHARGES


@<TRIPOS>ATOM
      1 C1         -8.9122    0.0822   61.7329 C.3     1  ZINC001310073555   -0.1600
      2 C2         -9.2128    1.5284   61.3340 C.3     1  ZINC001310073555   -0.1100
      3 C3         -9.8398    1.5526   59.9386 C.3     1  ZINC001310073555   -0.0600
      4 C4        -10.5592    2.8861   59.7259 C.3     1  ZINC001310073555   -0.1100
      5 C5         -9.5724    4.0367   59.9333 C.3     1  ZINC001310073555   -0.1600
      6 C6         -8.7433    1.3907   58.8839 C.3     1  ZINC001310073555    0.1600
      7 N7         -9.3207    1.5637   57.5487 N.am    1  ZINC001310073555   -0.7400
      8 C8         -8.5332    1.4807   56.4580 C.2     1  ZINC001310073555    0.7100
      9 O9         -7.3438    1.2609   56.5822 O.2     1  ZINC001310073555   -0.5700
     10 N10        -9.0642    1.6415   55.2297 N.am    1  ZINC001310073555   -0.6700
     11 C11        -8.2441    1.5550   54.0937 C.ar    1  ZINC001310073555    0.1000
     12 C12        -7.2695    2.5147   53.8670 C.ar    1  ZINC001310073555   -0.0400
     13 C13        -6.4619    2.4298   52.7484 C.ar    1  ZINC001310073555   -0.2200
     14 C14        -6.6240    1.3849   51.8510 C.ar    1  ZINC001310073555    0.1500
     15 O15        -5.8279    1.3042   50.7517 O.3     1  ZINC001310073555   -0.3200
     16 C16        -5.6763    2.4919   49.9718 C.3     1  ZINC001310073555    0.0300
     17 C17        -7.5971    0.4219   52.0742 C.ar    1  ZINC001310073555   -0.2300
     18 C18        -8.4047    0.5019   53.1962 C.ar    1  ZINC001310073555    0.1400
     19 O19        -9.3593   -0.4412   53.4167 O.3     1  ZINC001310073555   -0.3100
     20 C20       -10.5914   -0.2953   52.7078 C.3     1  ZINC001310073555    0.0300
     21 C21       -10.8288    0.4226   59.8126 C.2     1  ZINC001310073555    0.4800
     22 O22       -11.9298    0.5263   60.2997 O.2     1  ZINC001310073555   -0.5000
     23 O23       -10.4869   -0.6990   59.1593 O.3     1  ZINC001310073555   -0.3400
     24 C24       -11.4322   -1.8004   59.2010 C.3     1  ZINC001310073555    0.1200
     25 C25       -10.8341   -3.0131   58.4851 C.3     1  ZINC001310073555   -0.1800
     26 C26       -11.7287   -2.1630   60.6576 C.3     1  ZINC001310073555   -0.1400
     27 C27       -12.7297   -1.3855   58.5044 C.3     1  ZINC001310073555   -0.1800
     28 H28        -8.4655    0.0649   62.7271 H       1  ZINC001310073555    0.0600
     29 H29        -9.8383   -0.4926   61.7408 H       1  ZINC001310073555    0.0500
     30 H30        -8.2186   -0.3560   61.0153 H       1  ZINC001310073555    0.0600
     31 H31        -9.9063    1.9667   62.0517 H       1  ZINC001310073555    0.0800
     32 H32        -8.2866    2.1031   61.3262 H       1  ZINC001310073555    0.0800
     33 H33       -10.9568    2.9267   58.7118 H       1  ZINC001310073555    0.0800
     34 H34       -11.3772    2.9756   60.4407 H       1  ZINC001310073555    0.0800
     35 H35        -9.1748    3.9960   60.9474 H       1  ZINC001310073555    0.0600
     36 H36        -8.7544    3.9472   59.2185 H       1  ZINC001310073555    0.0500
     37 H37       -10.0849    4.9867   59.7819 H       1  ZINC001310073555    0.0600
     38 H38        -7.9701    2.1418   59.0454 H       1  ZINC001310073555    0.0800
     39 H39        -8.3058    0.3957   58.9645 H       1  ZINC001310073555    0.0800
     40 H40       -10.2698    1.7379   57.4495 H       1  ZINC001310073555    0.4000
     41 H41       -10.0130    1.8169   55.1306 H       1  ZINC001310073555    0.4100
     42 H42        -7.1416    3.3293   54.5645 H       1  ZINC001310073555    0.1500
     43 H43        -5.7036    3.1785   52.5727 H       1  ZINC001310073555    0.1300
     44 H44        -6.6513    2.8124   49.6045 H       1  ZINC001310073555    0.0600
     45 H45        -5.2439    3.2792   50.5892 H       1  ZINC001310073555    0.0600
     46 H46        -5.0181    2.2901   49.1268 H       1  ZINC001310073555    0.1000
     47 H47        -7.7227   -0.3915   51.3749 H       1  ZINC001310073555    0.1400
     48 H48       -11.2628   -1.1114   52.9743 H       1  ZINC001310073555    0.1000
     49 H49       -11.0527    0.6561   52.9729 H       1  ZINC001310073555    0.0600
     50 H50       -10.3985   -0.3190   51.6352 H       1  ZINC001310073555    0.0600
     51 H51        -9.9098   -3.3086   58.9814 H       1  ZINC001310073555    0.0600
     52 H52       -11.5437   -3.8399   58.5165 H       1  ZINC001310073555    0.0700
     53 H53       -10.6229   -2.7547   57.4474 H       1  ZINC001310073555    0.0800
     54 H54       -12.1548   -1.2990   61.1675 H       1  ZINC001310073555    0.0700
     55 H55       -12.4383   -2.9898   60.6889 H       1  ZINC001310073555    0.0800
     56 H56       -10.8044   -2.4585   61.1538 H       1  ZINC001310073555    0.0700
     57 H57       -12.5184   -1.1272   57.4667 H       1  ZINC001310073555    0.0800
     58 H58       -13.4393   -2.2123   58.5358 H       1  ZINC001310073555    0.0700
     59 H59       -13.1558   -0.5215   59.0145 H       1  ZINC001310073555    0.0600
@<TRIPOS>BOND
     1     1     2    1
     2     1    28    1
     3     1    29    1
     4     1    30    1
     5     2     3    1
     6     2    31    1
     7     2    32    1
     8     3     4    1
     9     3     6    1
    10     3    21    1
    11     4     5    1
    12     4    33    1
    13     4    34    1
    14     5    35    1
    15     5    36    1
    16     5    37    1
    17     6     7    1
    18     6    38    1
    19     6    39    1
    20     7     8   am
    21     7    40    1
    22     8     9    2
    23     8    10   am
    24    10    11    1
    25    10    41    1
    26    11    18   ar
    27    11    12   ar
    28    12    13   ar
    29    12    42    1
    30    13    14   ar
    31    13    43    1
    32    14    15    1
    33    14    17   ar
    34    15    16    1
    35    16    44    1
    36    16    45    1
    37    16    46    1
    38    17    18   ar
    39    17    47    1
    40    18    19    1
    41    19    20    1
    42    20    48    1
    43    20    49    1
    44    20    50    1
    45    21    22    2
    46    21    23    1
    47    23    24    1
    48    24    25    1
    49    24    26    1
    50    24    27    1
    51    25    51    1
    52    25    52    1
    53    25    53    1
    54    26    54    1
    55    26    55    1
    56    26    56    1
    57    27    57    1
    58    27    58    1
    59    27    59    1
@<TRIPOS>SUBSTRUCTURE
     1 ZINC001310073555        1 TEMP              0 ****  ****    0 ROOT


##########                                Name:    ZINC001342153661
##########                DOCK_Rotatable_Bonds:                   8
##########                         Heavy_Atoms:                  29
##########                    Molecular_Weight:             395.548
##########                DOCK_Rotatable_Bonds:                   8
##########                       Formal_Charge:          -0.0400005
##########                     HBond_Acceptors:                   6
##########                        HBond_Donors:                   1
##########                         Heavy_Atoms:                  29
##########                          Grid_Score:          -29.703226
##########                     Grid_vdw_energy:          -27.303720
##########                      Grid_es_energy:           -2.399505
##########           Internal_energy_repulsive:           18.913479

@<TRIPOS>MOLECULE
ZINC001342153661
 62 65 1 0 0
SMALL
USER_CHARGES


@<TRIPOS>ATOM
      1 C1         -9.6692    5.3502   58.0504 C.2     1  ZINC001342153661   -0.1400
      2 C2         -9.6289    4.5180   59.0614 C.2     1  ZINC001342153661   -0.1600
      3 C3        -10.8919    4.1825   59.8119 C.3     1  ZINC001342153661   -0.1200
      4 C4         -8.3196    3.8963   59.4737 C.3     1  ZINC001342153661    0.1500
      5 N5         -8.1676    2.5962   58.8161 N.pl3   1  ZINC001342153661   -0.4700
      6 C6         -8.5777    1.3797   59.2873 C.2     1  ZINC001342153661    0.1800
      7 C7         -9.2791    1.1189   60.5954 C.3     1  ZINC001342153661   -0.0600
      8 C8         -8.9828   -0.3093   61.0571 C.3     1  ZINC001342153661    0.1600
      9 H9         -7.9082   -0.4878   61.0191 H       1  ZINC001342153661    0.1000
     10 O10        -9.4472   -0.4825   62.3975 O.3     1  ZINC001342153661   -0.5400
     11 C11        -9.6868   -1.2865   60.1513 C.ar    1  ZINC001342153661   -0.1700
     12 C12       -11.0293   -1.1209   59.8485 C.ar    1  ZINC001342153661   -0.0600
     13 C13       -11.6356   -2.0444   59.0103 C.ar    1  ZINC001342153661   -0.1700
     14 C14       -10.8866   -3.0916   58.5083 C.ar    1  ZINC001342153661    0.1000
     15 N15        -9.6108   -3.2177   58.8179 N.ar    1  ZINC001342153661   -0.4800
     16 C16        -9.0005   -2.3559   59.6073 C.ar    1  ZINC001342153661    0.1100
     17 N17        -8.2502    0.4882   58.3954 N.2     1  ZINC001342153661   -0.2700
     18 N18        -7.6657    1.0541   57.4005 N.2     1  ZINC001342153661   -0.3200
     19 C19        -7.5927    2.3484   57.6036 C.2     1  ZINC001342153661    0.3600
     20 N20        -7.0305    3.2857   56.7517 N.3     1  ZINC001342153661   -0.4500
     21 C21        -7.9379    3.5979   55.6402 C.3     1  ZINC001342153661    0.0500
     22 C22        -7.3498    4.7370   54.8043 C.3     1  ZINC001342153661   -0.1200
     23 C23        -5.9801    4.3142   54.2662 C.3     1  ZINC001342153661   -0.1200
     24 C24        -5.0696    3.9481   55.4416 C.3     1  ZINC001342153661   -0.0800
     25 H25        -4.9218    4.8235   56.0739 H       1  ZINC001342153661    0.0800
     26 C26        -3.7176    3.4679   54.9100 C.3     1  ZINC001342153661   -0.0800
     27 C27        -3.0227    4.5919   54.1020 C.3     1  ZINC001342153661   -0.1200
     28 C28        -1.5276    4.1948   54.1800 C.3     1  ZINC001342153661   -0.1300
     29 C29        -1.3557    3.6480   55.6123 C.3     1  ZINC001342153661   -0.1300
     30 C30        -2.7482    3.1859   56.0764 C.3     1  ZINC001342153661   -0.1200
     31 C31        -5.7238    2.8318   56.2589 C.3     1  ZINC001342153661    0.0800
     32 H32       -10.6076    5.7958   57.7549 H       1  ZINC001342153661    0.1000
     33 H33        -8.7634    5.5941   57.5153 H       1  ZINC001342153661    0.1100
     34 H34       -11.4113    3.3699   59.3042 H       1  ZINC001342153661    0.0700
     35 H35       -10.6405    3.8750   60.8270 H       1  ZINC001342153661    0.0600
     36 H36       -11.5374    5.0601   59.8477 H       1  ZINC001342153661    0.0700
     37 H37        -7.4984    4.5503   59.1800 H       1  ZINC001342153661    0.1000
     38 H38        -8.3066    3.7603   60.5551 H       1  ZINC001342153661    0.1000
     39 H39        -8.9227    1.8247   61.3458 H       1  ZINC001342153661    0.1100
     40 H40       -10.3539    1.2421   60.4623 H       1  ZINC001342153661    0.1000
     41 H41        -8.9862    0.0654   63.0473 H       1  ZINC001342153661    0.3800
     42 H42       -11.5900   -0.2926   60.2560 H       1  ZINC001342153661    0.1300
     43 H43       -12.6800   -1.9467   58.7534 H       1  ZINC001342153661    0.1400
     44 H44       -11.3515   -3.8152   57.8551 H       1  ZINC001342153661    0.1600
     45 H45        -7.9543   -2.4920   59.8385 H       1  ZINC001342153661    0.1500
     46 H46        -8.0623    2.7145   55.0137 H       1  ZINC001342153661    0.0500
     47 H47        -8.9070    3.9011   56.0367 H       1  ZINC001342153661    0.0700
     48 H48        -8.0161    4.9580   53.9704 H       1  ZINC001342153661    0.0800
     49 H49        -7.2381    5.6249   55.4267 H       1  ZINC001342153661    0.0700
     50 H50        -6.0965    3.4497   53.6126 H       1  ZINC001342153661    0.0600
     51 H51        -5.5385    5.1385   53.7063 H       1  ZINC001342153661    0.0700
     52 H52        -3.8449    2.5766   54.2957 H       1  ZINC001342153661    0.0800
     53 H53        -3.3681    4.5945   53.0681 H       1  ZINC001342153661    0.0700
     54 H54        -3.1893    5.5628   54.5685 H       1  ZINC001342153661    0.0700
     55 H55        -1.2994    3.4214   53.4465 H       1  ZINC001342153661    0.0600
     56 H56        -0.8926    5.0672   54.0260 H       1  ZINC001342153661    0.0600
     57 H57        -0.6644    2.8054   55.6098 H       1  ZINC001342153661    0.0600
     58 H58        -0.9848    4.4341   56.2700 H       1  ZINC001342153661    0.0600
     59 H59        -3.0529    3.7477   56.9594 H       1  ZINC001342153661    0.0600
     60 H60        -2.7325    2.1191   56.2992 H       1  ZINC001342153661    0.0600
     61 H61        -5.0846    2.5787   57.1047 H       1  ZINC001342153661    0.0900
     62 H62        -5.8585    1.9521   55.6296 H       1  ZINC001342153661    0.0500
@<TRIPOS>BOND
     1     1     2    2
     2     1    32    1
     3     1    33    1
     4     2     3    1
     5     2     4    1
     6     3    34    1
     7     3    35    1
     8     3    36    1
     9     4     5    1
    10     4    37    1
    11     4    38    1
    12     5    19    1
    13     5     6    1
    14     6     7    1
    15     6    17    2
    16     7     8    1
    17     7    39    1
    18     7    40    1
    19     8     9    1
    20     8    10    1
    21     8    11    1
    22    10    41    1
    23    11    16   ar
    24    11    12   ar
    25    12    13   ar
    26    12    42    1
    27    13    14   ar
    28    13    43    1
    29    14    15   ar
    30    14    44    1
    31    15    16   ar
    32    16    45    1
    33    17    18    1
    34    18    19    2
    35    19    20    1
    36    20    31    1
    37    20    21    1
    38    21    22    1
    39    21    46    1
    40    21    47    1
    41    22    23    1
    42    22    48    1
    43    22    49    1
    44    23    24    1
    45    23    50    1
    46    23    51    1
    47    24    25    1
    48    24    26    1
    49    24    31    1
    50    26    30    1
    51    26    27    1
    52    26    52    1
    53    27    28    1
    54    27    53    1
    55    27    54    1
    56    28    29    1
    57    28    55    1
    58    28    56    1
    59    29    30    1
    60    29    57    1
    61    29    58    1
    62    30    59    1
    63    30    60    1
    64    31    61    1
    65    31    62    1
@<TRIPOS>SUBSTRUCTURE
     1 ZINC001342153661        1 TEMP              0 ****  ****    0 ROOT


##########                                Name:    ZINC000033150761
##########                DOCK_Rotatable_Bonds:                   7
##########                         Heavy_Atoms:                  29
##########                    Molecular_Weight:             413.407
##########                DOCK_Rotatable_Bonds:                   7
##########                       Formal_Charge:          0.00999993
##########                     HBond_Acceptors:                  10
##########                        HBond_Donors:                   1
##########                         Heavy_Atoms:                  29
##########                          Grid_Score:          -29.701571
##########                     Grid_vdw_energy:          -28.808090
##########                      Grid_es_energy:           -0.893480
##########           Internal_energy_repulsive:            5.864957

@<TRIPOS>MOLECULE
ZINC000033150761
 42 45 1 0 0
SMALL
USER_CHARGES


@<TRIPOS>ATOM
      1 O1         -6.0446    4.9274   55.5323 O.2     1  ZINC000033150761   -0.5000
      2 C2         -5.3855    4.2180   54.8020 C.2     1  ZINC000033150761    0.5200
      3 C3         -4.1107    4.7419   54.1925 C.3     1  ZINC000033150761   -0.1300
      4 C4         -3.0720    3.6196   54.1393 C.3     1  ZINC000033150761   -0.0100
      5 C5         -2.9133    3.1490   52.7165 C.2     1  ZINC000033150761    0.1800
      6 N6         -1.9606    3.4913   51.8856 N.2     1  ZINC000033150761   -0.4400
      7 C7         -2.2255    2.8293   50.7368 C.2     1  ZINC000033150761    0.2200
      8 C8         -1.4302    2.8848   49.4841 C.ar    1  ZINC000033150761    0.1900
      9 C9         -0.2628    3.6420   49.4406 C.ar    1  ZINC000033150761   -0.1300
     10 C10         0.4687    3.6842   48.2652 C.ar    1  ZINC000033150761   -0.0700
     11 C11         0.0066    2.9666   47.1721 C.ar    1  ZINC000033150761   -0.1500
     12 C12        -1.1623    2.2349   47.2861 C.ar    1  ZINC000033150761    0.1100
     13 N13        -1.8353    2.2080   48.4177 N.ar    1  ZINC000033150761   -0.4500
     14 N14        -3.3125    2.1310   50.9354 N.2     1  ZINC000033150761   -0.3600
     15 O15        -3.7152    2.2993   52.0671 O.3     1  ZINC000033150761    0.0900
     16 N16        -5.7901    2.9594   54.5401 N.am    1  ZINC000033150761   -0.6200
     17 C17        -6.9655    2.4764   55.1021 C.2     1  ZINC000033150761    0.2700
     18 N18        -7.1336    2.1876   56.3549 N.2     1  ZINC000033150761   -0.5000
     19 C19        -8.3275    1.7369   56.7138 C.2     1  ZINC000033150761    0.1200
     20 C20        -8.6487    1.3715   58.1151 C.ar    1  ZINC000033150761    0.0000
     21 C21        -9.6648    2.0394   58.7959 C.ar    1  ZINC000033150761   -0.0800
     22 C22        -9.9614    1.6966   60.0996 C.ar    1  ZINC000033150761   -0.1200
     23 C23        -9.2514    0.6905   60.7325 C.ar    1  ZINC000033150761    0.0700
     24 F24        -9.5454    0.3586   62.0086 F       1  ZINC000033150761   -0.1300
     25 C25        -8.2387    0.0217   60.0593 C.ar    1  ZINC000033150761    0.0700
     26 F26        -7.5489   -0.9597   60.6807 F       1  ZINC000033150761   -0.1300
     27 C27        -7.9388    0.3553   58.7527 C.ar    1  ZINC000033150761   -0.1000
     28 C28        -9.2276    1.6339   55.7197 C.2     1  ZINC000033150761   -0.2800
     29 S29        -8.4614    2.1683   54.2254 S.3     1  ZINC000033150761    0.2200
     30 H30        -4.3110    5.0996   53.1824 H       1  ZINC000033150761    0.1200
     31 H31        -3.7280    5.5625   54.7993 H       1  ZINC000033150761    0.1200
     32 H32        -2.1160    3.9916   54.5078 H       1  ZINC000033150761    0.1300
     33 H33        -3.4029    2.7886   54.7622 H       1  ZINC000033150761    0.1200
     34 H34         0.0676    4.1890   50.3112 H       1  ZINC000033150761    0.1400
     35 H35         1.3781    4.2632   48.2013 H       1  ZINC000033150761    0.1500
     36 H36         0.5535    2.9789   46.2409 H       1  ZINC000033150761    0.1400
     37 H37        -1.5252    1.6748   46.4371 H       1  ZINC000033150761    0.1700
     38 H38        -5.2608    2.3908   53.9592 H       1  ZINC000033150761    0.4300
     39 H39       -10.2194    2.8247   58.3039 H       1  ZINC000033150761    0.1400
     40 H40       -10.7487    2.2146   60.6273 H       1  ZINC000033150761    0.1500
     41 H41        -7.1508   -0.1651   58.2286 H       1  ZINC000033150761    0.1600
     42 H42       -10.2456    1.2879   55.8207 H       1  ZINC000033150761    0.1800
@<TRIPOS>BOND
     1     1     2    2
     2     2     3    1
     3     2    16   am
     4     3     4    1
     5     3    30    1
     6     3    31    1
     7     4     5    1
     8     4    32    1
     9     4    33    1
    10     5    15    1
    11     5     6    2
    12     6     7    1
    13     7     8    1
    14     7    14    2
    15     8    13   ar
    16     8     9   ar
    17     9    10   ar
    18     9    34    1
    19    10    11   ar
    20    10    35    1
    21    11    12   ar
    22    11    36    1
    23    12    13   ar
    24    12    37    1
    25    14    15    1
    26    16    17    1
    27    16    38    1
    28    17    29    1
    29    17    18    2
    30    18    19    1
    31    19    20    1
    32    19    28    2
    33    20    27   ar
    34    20    21   ar
    35    21    22   ar
    36    21    39    1
    37    22    23   ar
    38    22    40    1
    39    23    24    1
    40    23    25   ar
    41    25    26    1
    42    25    27   ar
    43    27    41    1
    44    28    29    1
    45    28    42    1
@<TRIPOS>SUBSTRUCTURE
     1 ZINC000033150761        1 TEMP              0 ****  ****    0 ROOT


##########                                Name:    ZINC000502834785
##########                DOCK_Rotatable_Bonds:                   9
##########                         Heavy_Atoms:                  26
##########                    Molecular_Weight:             356.468
##########                DOCK_Rotatable_Bonds:                   9
##########                       Formal_Charge:           0.0199998
##########                     HBond_Acceptors:                   6
##########                        HBond_Donors:                   2
##########                         Heavy_Atoms:                  26
##########                          Grid_Score:          -29.679276
##########                     Grid_vdw_energy:          -29.684196
##########                      Grid_es_energy:            0.004920
##########           Internal_energy_repulsive:           18.481754

@<TRIPOS>MOLECULE
ZINC000502834785
 54 56 1 0 0
SMALL
USER_CHARGES


@<TRIPOS>ATOM
      1 C1        -10.8571   -1.0582   53.4307 C.3     1  ZINC000502834785   -0.1800
      2 C2        -10.6090   -0.2142   52.1788 C.3     1  ZINC000502834785    0.0800
      3 C3        -11.8724    0.5798   51.8405 C.3     1  ZINC000502834785   -0.1500
      4 O4         -9.5287    0.6896   52.4201 O.3     1  ZINC000502834785   -0.3800
      5 C5         -8.2452    0.0629   52.4630 C.3     1  ZINC000502834785    0.1000
      6 C6         -7.1694    1.1160   52.3945 C.ar    1  ZINC000502834785   -0.0800
      7 C7         -6.3322    1.1784   51.2963 C.ar    1  ZINC000502834785   -0.1000
      8 C8         -5.3454    2.1444   51.2335 C.ar    1  ZINC000502834785   -0.1000
      9 C9         -5.1962    3.0483   52.2687 C.ar    1  ZINC000502834785   -0.1000
     10 C10        -4.1200    4.1012   52.2004 C.3     1  ZINC000502834785    0.1600
     11 N11        -2.8588    3.4839   51.7828 N.am    1  ZINC000502834785   -0.7300
     12 C12        -1.8909    4.2388   51.2263 C.2     1  ZINC000502834785    0.5100
     13 O13        -2.0635    5.4293   51.0725 O.2     1  ZINC000502834785   -0.5200
     14 C14        -0.5942    3.6034   50.7951 C.3     1  ZINC000502834785    0.0300
     15 N15        -0.5925    3.4360   49.3357 N.3     1  ZINC000502834785   -0.5000
     16 C16        -1.4776    2.3238   48.9289 C.3     1  ZINC000502834785    0.0500
     17 C17        -0.7901    1.7053   47.6862 C.3     1  ZINC000502834785   -0.1300
     18 C18         0.7094    1.8250   48.0656 C.3     1  ZINC000502834785   -0.1300
     19 C19         0.7673    3.1603   48.8370 C.3     1  ZINC000502834785    0.1500
     20 H20         1.0870    3.9606   48.1695 H       1  ZINC000502834785    0.1100
     21 C21         1.7270    3.0434   49.9930 C.2     1  ZINC000502834785    0.0600
     22 N22         2.5996    3.9466   50.3601 N.2     1  ZINC000502834785   -0.2900
     23 N23         3.2950    3.4564   51.4730 N.pl3   1  ZINC000502834785   -0.4800
     24 C24         2.8093    2.2304   51.7593 C.2     1  ZINC000502834785    0.0600
     25 C25         1.8348    1.9530   50.8624 C.2     1  ZINC000502834785   -0.2600
     26 C26        -6.0342    2.9867   53.3662 C.ar    1  ZINC000502834785   -0.1000
     27 C27        -7.0235    2.0231   53.4273 C.ar    1  ZINC000502834785   -0.1000
     28 H28        -9.9571   -1.6238   53.6717 H       1  ZINC000502834785    0.0600
     29 H29       -11.1099   -0.4044   54.2654 H       1  ZINC000502834785    0.0600
     30 H30       -11.6812   -1.7476   53.2467 H       1  ZINC000502834785    0.0700
     31 H31       -10.3564   -0.8680   51.3440 H       1  ZINC000502834785    0.0600
     32 H32       -12.1251    1.2335   52.6752 H       1  ZINC000502834785    0.0600
     33 H33       -11.6956    1.1810   50.9486 H       1  ZINC000502834785    0.0600
     34 H34       -12.6963   -0.1096   51.6564 H       1  ZINC000502834785    0.0700
     35 H35        -8.1457   -0.4983   53.3921 H       1  ZINC000502834785    0.0600
     36 H36        -8.1437   -0.6158   51.6161 H       1  ZINC000502834785    0.0600
     37 H37        -6.4488    0.4722   50.4875 H       1  ZINC000502834785    0.1300
     38 H38        -4.6908    2.1928   50.3758 H       1  ZINC000502834785    0.1300
     39 H39        -4.4061    4.8668   51.4793 H       1  ZINC000502834785    0.0800
     40 H40        -3.9941    4.5562   53.1828 H       1  ZINC000502834785    0.0800
     41 H41        -2.7203    2.5318   51.9070 H       1  ZINC000502834785    0.4000
     42 H42         0.2387    4.2424   51.0885 H       1  ZINC000502834785    0.1000
     43 H43        -0.4905    2.6292   51.2727 H       1  ZINC000502834785    0.0800
     44 H44        -1.5518    1.5863   49.7279 H       1  ZINC000502834785    0.0400
     45 H45        -2.4659    2.7017   48.6670 H       1  ZINC000502834785    0.1000
     46 H46        -1.0786    0.6619   47.5592 H       1  ZINC000502834785    0.0800
     47 H47        -1.0130    2.2825   46.7888 H       1  ZINC000502834785    0.0800
     48 H48         1.0123    0.9965   48.7060 H       1  ZINC000502834785    0.0800
     49 H49         1.3309    1.8693   47.1712 H       1  ZINC000502834785    0.0800
     50 H50         4.0008    3.9171   51.9532 H       1  ZINC000502834785    0.4400
     51 H51         3.1369    1.5875   52.5629 H       1  ZINC000502834785    0.1800
     52 H52         1.2481    1.0472   50.8214 H       1  ZINC000502834785    0.1500
     53 H53        -5.9179    3.6932   54.1749 H       1  ZINC000502834785    0.1300
     54 H54        -7.6783    1.9750   54.2848 H       1  ZINC000502834785    0.1200
@<TRIPOS>BOND
     1     1     2    1
     2     1    28    1
     3     1    29    1
     4     1    30    1
     5     2     3    1
     6     2     4    1
     7     2    31    1
     8     3    32    1
     9     3    33    1
    10     3    34    1
    11     4     5    1
    12     5     6    1
    13     5    35    1
    14     5    36    1
    15     6    27   ar
    16     6     7   ar
    17     7     8   ar
    18     7    37    1
    19     8     9   ar
    20     8    38    1
    21     9    10    1
    22     9    26   ar
    23    10    11    1
    24    10    39    1
    25    10    40    1
    26    11    12   am
    27    11    41    1
    28    12    13    2
    29    12    14    1
    30    14    15    1
    31    14    42    1
    32    14    43    1
    33    15    19    1
    34    15    16    1
    35    16    17    1
    36    16    44    1
    37    16    45    1
    38    17    18    1
    39    17    46    1
    40    17    47    1
    41    18    19    1
    42    18    48    1
    43    18    49    1
    44    19    20    1
    45    19    21    1
    46    21    25    1
    47    21    22    2
    48    22    23    1
    49    23    24    1
    50    23    50    1
    51    24    25    2
    52    24    51    1
    53    25    52    1
    54    26    27   ar
    55    26    53    1
    56    27    54    1
@<TRIPOS>SUBSTRUCTURE
     1 ZINC000502834785        1 TEMP              0 ****  ****    0 ROOT


##########                                Name:    ZINC000062882109
##########                DOCK_Rotatable_Bonds:                   8
##########                         Heavy_Atoms:                  31
##########                    Molecular_Weight:             424.497
##########                DOCK_Rotatable_Bonds:                   8
##########                       Formal_Charge:           0.0299993
##########                     HBond_Acceptors:                   7
##########                        HBond_Donors:                   1
##########                         Heavy_Atoms:                  31
##########                          Grid_Score:          -29.673275
##########                     Grid_vdw_energy:          -29.719925
##########                      Grid_es_energy:            0.046651
##########           Internal_energy_repulsive:          192.141891

@<TRIPOS>MOLECULE
ZINC000062882109
 59 61 1 0 0
SMALL
USER_CHARGES


@<TRIPOS>ATOM
      1 C1         -5.4747    4.8961   53.1731 C.3     1  ZINC000062882109   -0.2000
      2 C2         -5.1236    3.8275   52.1702 C.2     1  ZINC000062882109    0.3900
      3 O3         -4.1488    3.9583   51.4611 O.2     1  ZINC000062882109   -0.4500
      4 C4         -5.9640    2.6250   52.0515 C.ar    1  ZINC000062882109   -0.1300
      5 C5         -5.6352    1.6269   51.1288 C.ar    1  ZINC000062882109   -0.1100
      6 C6         -6.4257    0.5017   51.0211 C.ar    1  ZINC000062882109   -0.0900
      7 C7         -7.5433    0.3564   51.8226 C.ar    1  ZINC000062882109   -0.1800
      8 C8         -7.8789    1.3420   52.7420 C.ar    1  ZINC000062882109    0.1200
      9 O9         -8.9788    1.1925   53.5264 O.3     1  ZINC000062882109   -0.2800
     10 C10        -9.7664    0.0177   53.3222 C.3     1  ZINC000062882109    0.0700
     11 H11        -9.1093   -0.8399   53.1785 H       1  ZINC000062882109    0.1000
     12 C12       -10.6440    0.2013   52.0825 C.3     1  ZINC000062882109   -0.1800
     13 C13       -10.6413   -0.2160   54.5268 C.2     1  ZINC000062882109    0.5200
     14 O14       -11.2855    0.6987   54.9953 O.2     1  ZINC000062882109   -0.4900
     15 N15       -10.7079   -1.4416   55.0836 N.am    1  ZINC000062882109   -0.6600
     16 C16       -11.5213   -1.6590   56.2035 C.ar    1  ZINC000062882109    0.1400
     17 C17       -12.5742   -2.5610   56.1332 C.ar    1  ZINC000062882109   -0.1000
     18 C18       -13.3797   -2.7770   57.2349 C.ar    1  ZINC000062882109   -0.1100
     19 C19       -13.1404   -2.0930   58.4174 C.ar    1  ZINC000062882109    0.0800
     20 O20       -13.9456   -2.3078   59.4920 O.3     1  ZINC000062882109   -0.3100
     21 C21       -13.4425   -1.9539   60.7824 C.3     1  ZINC000062882109    0.0500
     22 C22       -12.8849   -0.5247   60.7213 C.3     1  ZINC000062882109    0.0400
     23 N23       -11.8349   -0.5005   59.6886 N.am    1  ZINC000062882109   -0.5500
     24 C24       -10.6770    0.1603   59.8868 C.2     1  ZINC000062882109    0.5300
     25 O25        -9.8267    0.1666   59.0219 O.2     1  ZINC000062882109   -0.5100
     26 C26       -10.4391    0.8914   61.1829 C.3     1  ZINC000062882109   -0.0800
     27 C27        -9.1304    1.6788   61.0915 C.3     1  ZINC000062882109   -0.1300
     28 C28       -11.5974    1.8561   61.4444 C.3     1  ZINC000062882109   -0.1600
     29 C29       -10.3478   -0.1185   62.3287 C.3     1  ZINC000062882109   -0.1500
     30 C30       -12.0820   -1.1907   58.4894 C.ar    1  ZINC000062882109    0.1000
     31 C31       -11.2719   -0.9766   57.3869 C.ar    1  ZINC000062882109   -0.1400
     32 C32        -7.0909    2.4729   52.8645 C.ar    1  ZINC000062882109   -0.0900
     33 H33        -4.7436    5.7025   53.1158 H       1  ZINC000062882109    0.0900
     34 H34        -6.4672    5.2892   52.9529 H       1  ZINC000062882109    0.1000
     35 H35        -5.4671    4.4695   54.1762 H       1  ZINC000062882109    0.1000
     36 H36        -4.7634    1.7371   50.5010 H       1  ZINC000062882109    0.1400
     37 H37        -6.1713   -0.2685   50.3080 H       1  ZINC000062882109    0.1300
     38 H38        -8.1578   -0.5271   51.7332 H       1  ZINC000062882109    0.1300
     39 H39       -10.0112    0.3704   51.2112 H       1  ZINC000062882109    0.0800
     40 H40       -11.2448   -0.6948   51.9267 H       1  ZINC000062882109    0.0800
     41 H41       -11.3012    1.0589   52.2261 H       1  ZINC000062882109    0.0800
     42 H42       -10.1928   -2.1732   54.7090 H       1  ZINC000062882109    0.4100
     43 H43       -12.7644   -3.0957   55.2143 H       1  ZINC000062882109    0.1400
     44 H44       -14.1978   -3.4795   57.1750 H       1  ZINC000062882109    0.1400
     45 H45       -14.2489   -2.0004   61.5142 H       1  ZINC000062882109    0.1300
     46 H46       -12.6483   -2.6441   61.0667 H       1  ZINC000062882109    0.0700
     47 H47       -13.6804    0.1717   60.4564 H       1  ZINC000062882109    0.0900
     48 H48       -12.4599   -0.2519   61.6873 H       1  ZINC000062882109    0.1300
     49 H49        -9.1954    2.3982   60.2753 H       1  ZINC000062882109    0.0600
     50 H50        -8.9583    2.2075   62.0291 H       1  ZINC000062882109    0.0700
     51 H51        -8.3051    0.9915   60.9053 H       1  ZINC000062882109    0.0700
     52 H52       -12.5297    1.2953   61.5096 H       1  ZINC000062882109    0.0700
     53 H53       -11.4253    2.3849   62.3819 H       1  ZINC000062882109    0.0800
     54 H54       -11.6625    2.5755   60.6282 H       1  ZINC000062882109    0.0600
     55 H55        -9.4142   -0.6753   62.2487 H       1  ZINC000062882109    0.0700
     56 H56       -10.3751    0.4099   63.2817 H       1  ZINC000062882109    0.0800
     57 H57       -11.1890   -0.8092   62.2720 H       1  ZINC000062882109    0.0700
     58 H58       -10.4510   -0.2773   57.4459 H       1  ZINC000062882109    0.1800
     59 H59        -7.3509    3.2397   53.5794 H       1  ZINC000062882109    0.1400
@<TRIPOS>BOND
     1     1     2    1
     2     1    33    1
     3     1    34    1
     4     1    35    1
     5     2     3    2
     6     2     4    1
     7     4    32   ar
     8     4     5   ar
     9     5     6   ar
    10     5    36    1
    11     6     7   ar
    12     6    37    1
    13     7     8   ar
    14     7    38    1
    15     8     9    1
    16     8    32   ar
    17     9    10    1
    18    10    11    1
    19    10    12    1
    20    10    13    1
    21    12    39    1
    22    12    40    1
    23    12    41    1
    24    13    14    2
    25    13    15   am
    26    15    16    1
    27    15    42    1
    28    16    31   ar
    29    16    17   ar
    30    17    18   ar
    31    17    43    1
    32    18    19   ar
    33    18    44    1
    34    19    30   ar
    35    19    20    1
    36    20    21    1
    37    21    22    1
    38    21    45    1
    39    21    46    1
    40    22    23    1
    41    22    47    1
    42    22    48    1
    43    23    24   am
    44    23    30    1
    45    24    25    2
    46    24    26    1
    47    26    27    1
    48    26    28    1
    49    26    29    1
    50    27    49    1
    51    27    50    1
    52    27    51    1
    53    28    52    1
    54    28    53    1
    55    28    54    1
    56    29    55    1
    57    29    56    1
    58    29    57    1
    59    30    31   ar
    60    31    58    1
    61    32    59    1
@<TRIPOS>SUBSTRUCTURE
     1 ZINC000062882109        1 TEMP              0 ****  ****    0 ROOT


##########                                Name:    ZINC000740930783
##########                DOCK_Rotatable_Bonds:                  11
##########                         Heavy_Atoms:                  27
##########                    Molecular_Weight:             413.257
##########                DOCK_Rotatable_Bonds:                  11
##########                       Formal_Charge:          -0.0100004
##########                     HBond_Acceptors:                   9
##########                        HBond_Donors:                   4
##########                         Heavy_Atoms:                  27
##########                          Grid_Score:          -29.665367
##########                     Grid_vdw_energy:          -27.873152
##########                      Grid_es_energy:           -1.792215
##########           Internal_energy_repulsive:            9.070509

@<TRIPOS>MOLECULE
ZINC000740930783
 45 46 1 0 0
SMALL
USER_CHARGES


@<TRIPOS>ATOM
      1 C1         -6.8833    2.3874   56.8481 C.3     1  ZINC000740930783    0.0200
      2 O2         -6.5041    3.4542   55.9761 O.3     1  ZINC000740930783   -0.3000
      3 C3         -5.3490    3.2980   55.2754 C.ar    1  ZINC000740930783    0.1200
      4 C4         -4.1354    3.3005   55.9351 C.ar    1  ZINC000740930783   -0.1400
      5 C5         -2.9501    3.1392   55.2126 C.ar    1  ZINC000740930783   -0.0800
      6 C6         -1.6508    3.1408   55.9132 C.2     1  ZINC000740930783    0.5600
      7 O7         -0.7936    3.9450   55.6023 O.2     1  ZINC000740930783   -0.5300
      8 N8         -1.4149    2.2509   56.8975 N.am    1  ZINC000740930783   -0.7200
      9 C9         -0.1247    2.2514   57.5916 C.3     1  ZINC000740930783    0.0900
     10 C10        -0.3126    1.7294   59.0175 C.3     1  ZINC000740930783    0.1400
     11 H11        -1.0365    0.9145   59.0137 H       1  ZINC000740930783    0.1200
     12 O12        -0.7896    2.7863   59.8527 O.3     1  ZINC000740930783   -0.5500
     13 C13         1.0061    1.2274   59.5465 C.ar    1  ZINC000740930783   -0.1100
     14 C14         2.1826    1.8478   59.1714 C.ar    1  ZINC000740930783   -0.1000
     15 C15         3.3926    1.3873   59.6567 C.ar    1  ZINC000740930783   -0.1100
     16 C16         3.4263    0.3058   60.5167 C.ar    1  ZINC000740930783   -0.1000
     17 C17         2.2502   -0.3158   60.8926 C.ar    1  ZINC000740930783   -0.1100
     18 C18         1.0389    0.1484   60.4123 C.ar    1  ZINC000740930783   -0.0300
     19 Cl19       -0.4387   -0.6315   60.8839 Cl      1  ZINC000740930783   -0.0600
     20 C20        -2.9973    2.9761   53.8262 C.ar    1  ZINC000740930783   -0.1000
     21 C21        -4.2123    2.9745   53.1732 C.ar    1  ZINC000740930783   -0.0200
     22 Cl22       -4.2694    2.7711   51.4502 Cl      1  ZINC000740930783   -0.0300
     23 C23        -5.3903    3.1295   53.8923 C.ar    1  ZINC000740930783    0.0900
     24 O24        -6.5845    3.1272   53.2453 O.3     1  ZINC000740930783   -0.2900
     25 C25        -7.2223    1.8612   53.0649 C.3     1  ZINC000740930783    0.0400
     26 C26        -8.4230    2.0266   52.1694 C.2     1  ZINC000740930783    0.5200
     27 N27        -9.2643    0.9922   51.9723 N.am    1  ZINC000740930783   -0.8500
     28 O28        -8.6323    3.0904   51.6260 O.2     1  ZINC000740930783   -0.5100
     29 H29        -7.0136    1.4734   56.2687 H       1  ZINC000740930783    0.0600
     30 H30        -6.1052    2.2355   57.5961 H       1  ZINC000740930783    0.0600
     31 H31        -7.8203    2.6396   57.3446 H       1  ZINC000740930783    0.1100
     32 H32        -4.1026    3.4273   57.0071 H       1  ZINC000740930783    0.1600
     33 H33        -2.0993    1.6101   57.1463 H       1  ZINC000740930783    0.4100
     34 H34         0.5749    1.6078   57.0584 H       1  ZINC000740930783    0.0900
     35 H35         0.2692    3.2671   57.6255 H       1  ZINC000740930783    0.0800
     36 H36        -1.1807    2.4846   60.6841 H       1  ZINC000740930783    0.3800
     37 H37         2.1568    2.6924   58.4989 H       1  ZINC000740930783    0.1300
     38 H38         4.3118    1.8725   59.3633 H       1  ZINC000740930783    0.1300
     39 H39         4.3719   -0.0540   60.8949 H       1  ZINC000740930783    0.1400
     40 H40         2.2768   -1.1608   61.5646 H       1  ZINC000740930783    0.1400
     41 H41        -2.0827    2.8517   53.2655 H       1  ZINC000740930783    0.1500
     42 H42        -6.5213    1.1631   52.6074 H       1  ZINC000740930783    0.0900
     43 H43        -7.5413    1.4739   54.0326 H       1  ZINC000740930783    0.0900
     44 H44       -10.0378    1.0989   51.3968 H       1  ZINC000740930783    0.4000
     45 H45        -9.0962    0.1409   52.4060 H       1  ZINC000740930783    0.4100
@<TRIPOS>BOND
     1     1     2    1
     2     1    29    1
     3     1    30    1
     4     1    31    1
     5     2     3    1
     6     3    23   ar
     7     3     4   ar
     8     4     5   ar
     9     4    32    1
    10     5     6    1
    11     5    20   ar
    12     6     7    2
    13     6     8   am
    14     8     9    1
    15     8    33    1
    16     9    10    1
    17     9    34    1
    18     9    35    1
    19    10    11    1
    20    10    12    1
    21    10    13    1
    22    12    36    1
    23    13    18   ar
    24    13    14   ar
    25    14    15   ar
    26    14    37    1
    27    15    16   ar
    28    15    38    1
    29    16    17   ar
    30    16    39    1
    31    17    18   ar
    32    17    40    1
    33    18    19    1
    34    20    21   ar
    35    20    41    1
    36    21    22    1
    37    21    23   ar
    38    23    24    1
    39    24    25    1
    40    25    26    1
    41    25    42    1
    42    25    43    1
    43    26    27   am
    44    26    28    2
    45    27    44    1
    46    27    45    1
@<TRIPOS>SUBSTRUCTURE
     1 ZINC000740930783        1 TEMP              0 ****  ****    0 ROOT


##########                                Name:    ZINC000428748914
##########                DOCK_Rotatable_Bonds:                  11
##########                         Heavy_Atoms:                  30
##########                    Molecular_Weight:             413.492
##########                DOCK_Rotatable_Bonds:                  11
##########                       Formal_Charge:           0.0199993
##########                     HBond_Acceptors:                   7
##########                        HBond_Donors:                   3
##########                         Heavy_Atoms:                  30
##########                          Grid_Score:          -29.632154
##########                     Grid_vdw_energy:          -28.826262
##########                      Grid_es_energy:           -0.805893
##########           Internal_energy_repulsive:           16.591887

@<TRIPOS>MOLECULE
ZINC000428748914
 58 61 1 0 0
SMALL
USER_CHARGES


@<TRIPOS>ATOM
      1 O1        -12.0530    2.7900   51.7665 O.2     1  ZINC000428748914   -0.5900
      2 C2        -11.1277    3.0309   51.0153 C.2     1  ZINC000428748914    0.7000
      3 N3        -11.3700    3.3532   49.7293 N.am    1  ZINC000428748914   -0.7400
      4 C4        -12.7480    3.4077   49.2350 C.3     1  ZINC000428748914    0.1900
      5 C5        -12.7679    3.0762   47.7650 C.ar    1  ZINC000428748914   -0.2000
      6 C6        -11.6426    3.2923   46.9821 C.ar    1  ZINC000428748914   -0.0200
      7 C7        -11.7036    2.9739   45.6364 C.ar    1  ZINC000428748914   -0.1900
      8 C8        -12.8817    2.4522   45.1182 C.ar    1  ZINC000428748914    0.3300
      9 O9        -12.9541    2.1356   43.8008 O.3     1  ZINC000428748914   -0.3000
     10 C10       -14.1926    1.6010   43.3292 C.3     1  ZINC000428748914    0.0800
     11 C11       -15.3175    2.6601   43.4400 C.3     1  ZINC000428748914   -0.1400
     12 C12       -16.3451    2.1788   42.3858 C.3     1  ZINC000428748914   -0.1200
     13 C13       -15.4771    1.6622   41.2197 C.3     1  ZINC000428748914   -0.1200
     14 C14       -14.1085    1.2949   41.8196 C.3     1  ZINC000428748914   -0.1200
     15 N15       -13.9337    2.2604   45.8968 N.ar    1  ZINC000428748914   -0.5400
     16 C16       -13.9041    2.5487   47.1839 C.ar    1  ZINC000428748914    0.1600
     17 N17        -9.8600    2.9807   51.4701 N.am    1  ZINC000428748914   -0.7400
     18 C18        -9.5965    2.6303   52.8681 C.3     1  ZINC000428748914    0.1800
     19 C19        -8.1355    2.2023   53.0199 C.3     1  ZINC000428748914   -0.1300
     20 C20        -7.7541    0.8968   52.3191 C.3     1  ZINC000428748914    0.1100
     21 O21        -8.7188   -0.1105   52.6305 O.3     1  ZINC000428748914   -0.5700
     22 C22        -7.4393    2.5234   54.3439 C.3     1  ZINC000428748914   -0.1400
     23 C23        -7.0784    3.3067   53.0801 C.3     1  ZINC000428748914   -0.1000
     24 H24        -7.4238    4.3382   53.0116 H       1  ZINC000428748914    0.1200
     25 C25        -5.7408    3.0255   52.4454 C.ar    1  ZINC000428748914   -0.0700
     26 C26        -4.6135    2.9019   53.2360 C.ar    1  ZINC000428748914   -0.0900
     27 C27        -3.3863    2.6441   52.6551 C.ar    1  ZINC000428748914   -0.1500
     28 C28        -3.2863    2.5091   51.2808 C.ar    1  ZINC000428748914    0.1000
     29 F29        -2.0872    2.2566   50.7118 F       1  ZINC000428748914   -0.1400
     30 C30        -4.4161    2.6326   50.4899 C.ar    1  ZINC000428748914   -0.1500
     31 C31        -5.6430    2.8858   51.0735 C.ar    1  ZINC000428748914   -0.0800
     32 H32       -10.6321    3.5493   49.1311 H       1  ZINC000428748914    0.4000
     33 H33       -13.3578    2.6859   49.7785 H       1  ZINC000428748914    0.0800
     34 H34       -13.1492    4.4097   49.3870 H       1  ZINC000428748914    0.0800
     35 H35       -10.7399    3.6999   47.4128 H       1  ZINC000428748914    0.1400
     36 H36       -10.8466    3.1296   44.9977 H       1  ZINC000428748914    0.1400
     37 H37       -14.4560    0.7021   43.8866 H       1  ZINC000428748914    0.1000
     38 H38       -15.7562    2.6547   44.4377 H       1  ZINC000428748914    0.0700
     39 H39       -14.9409    3.6514   43.1878 H       1  ZINC000428748914    0.0800
     40 H40       -16.9583    1.3738   42.7906 H       1  ZINC000428748914    0.0700
     41 H41       -16.9712    3.0082   42.0569 H       1  ZINC000428748914    0.0700
     42 H42       -15.9377    0.7811   40.7732 H       1  ZINC000428748914    0.0700
     43 H43       -15.3581    2.4430   40.4685 H       1  ZINC000428748914    0.0700
     44 H44       -13.3253    1.8974   41.3595 H       1  ZINC000428748914    0.0800
     45 H45       -13.9050    0.2354   41.6642 H       1  ZINC000428748914    0.0700
     46 H46       -14.7824    2.3784   47.7888 H       1  ZINC000428748914    0.1600
     47 H47        -9.1220    3.1767   50.8719 H       1  ZINC000428748914    0.3900
     48 H48        -9.7895    3.4956   53.5021 H       1  ZINC000428748914    0.0700
     49 H49       -10.2486    1.8092   53.1658 H       1  ZINC000428748914    0.0900
     50 H50        -7.7306    1.0565   51.2411 H       1  ZINC000428748914    0.0500
     51 H51        -6.7701    0.5753   52.6602 H       1  ZINC000428748914    0.0600
     52 H52        -8.8557   -0.2444   53.5783 H       1  ZINC000428748914    0.3800
     53 H53        -8.0221    3.0396   55.1068 H       1  ZINC000428748914    0.1100
     54 H54        -6.7094    1.8045   54.7161 H       1  ZINC000428748914    0.1100
     55 H55        -4.6918    3.0072   54.3080 H       1  ZINC000428748914    0.1400
     56 H56        -2.5057    2.5483   53.2728 H       1  ZINC000428748914    0.1400
     57 H57        -4.3391    2.5279   49.4178 H       1  ZINC000428748914    0.1400
     58 H58        -6.5244    2.9818   50.4569 H       1  ZINC000428748914    0.1300
@<TRIPOS>BOND
     1     1     2    2
     2     2     3   am
     3     2    17   am
     4     3     4    1
     5     3    32    1
     6     4     5    1
     7     4    33    1
     8     4    34    1
     9     5    16   ar
    10     5     6   ar
    11     6     7   ar
    12     6    35    1
    13     7     8   ar
    14     7    36    1
    15     8     9    1
    16     8    15   ar
    17     9    10    1
    18    10    14    1
    19    10    11    1
    20    10    37    1
    21    11    12    1
    22    11    38    1
    23    11    39    1
    24    12    13    1
    25    12    40    1
    26    12    41    1
    27    13    14    1
    28    13    42    1
    29    13    43    1
    30    14    44    1
    31    14    45    1
    32    15    16   ar
    33    16    46    1
    34    17    18    1
    35    17    47    1
    36    18    19    1
    37    18    48    1
    38    18    49    1
    39    19    23    1
    40    19    20    1
    41    19    22    1
    42    20    21    1
    43    20    50    1
    44    20    51    1
    45    21    52    1
    46    22    23    1
    47    22    53    1
    48    22    54    1
    49    23    24    1
    50    23    25    1
    51    25    31   ar
    52    25    26   ar
    53    26    27   ar
    54    26    55    1
    55    27    28   ar
    56    27    56    1
    57    28    29    1
    58    28    30   ar
    59    30    31   ar
    60    30    57    1
    61    31    58    1
@<TRIPOS>SUBSTRUCTURE
     1 ZINC000428748914        1 TEMP              0 ****  ****    0 ROOT


##########                                Name:    ZINC000265724350
##########                DOCK_Rotatable_Bonds:                   8
##########                         Heavy_Atoms:                  23
##########                    Molecular_Weight:              345.42
##########                DOCK_Rotatable_Bonds:                   8
##########                       Formal_Charge:          -0.0300002
##########                     HBond_Acceptors:                   9
##########                        HBond_Donors:                   2
##########                         Heavy_Atoms:                  23
##########                          Grid_Score:          -29.610796
##########                     Grid_vdw_energy:          -30.012371
##########                      Grid_es_energy:            0.401575
##########           Internal_energy_repulsive:            4.604751

@<TRIPOS>MOLECULE
ZINC000265724350
 46 47 1 0 0
SMALL
USER_CHARGES


@<TRIPOS>ATOM
      1 C1        -11.7688   -1.9454   54.5695 C.3     1  ZINC000265724350    0.0800
      2 N2        -10.6264   -1.0554   54.3476 N.am    1  ZINC000265724350   -1.1100
      3 S3        -10.4561   -0.2724   52.8985 S.o2    1  ZINC000265724350    2.7200
      4 O4        -10.2089   -1.2781   51.9256 O.2     1  ZINC000265724350   -0.9300
      5 O5        -11.5364    0.6464   52.8094 O.2     1  ZINC000265724350   -0.9300
      6 C6         -8.9870    0.6953   52.9981 C.2     1  ZINC000265724350   -0.5600
      7 C7         -8.4663    1.2214   54.1287 C.2     1  ZINC000265724350   -0.0900
      8 C8         -7.3012    1.9138   53.7636 C.2     1  ZINC000265724350   -0.1400
      9 C9         -7.1684    1.7735   52.4119 C.2     1  ZINC000265724350   -0.0200
     10 C10        -6.0908    2.3328   51.5892 C.2     1  ZINC000265724350    0.6000
     11 O11        -6.1989    2.3538   50.3772 O.2     1  ZINC000265724350   -0.5000
     12 N12        -4.9809    2.8236   52.1753 N.am    1  ZINC000265724350   -0.7100
     13 C13        -3.9052    3.3839   51.3535 C.3     1  ZINC000265724350    0.1200
     14 C14        -2.5569    3.1107   52.0231 C.3     1  ZINC000265724350   -0.1100
     15 H15        -2.5320    2.0825   52.3839 H       1  ZINC000265724350    0.0800
     16 C16        -1.4315    3.3224   51.0084 C.3     1  ZINC000265724350   -0.1400
     17 C17        -2.3687    4.0692   53.2006 C.3     1  ZINC000265724350    0.0600
     18 N18        -1.8109    3.3358   54.3447 N.3     1  ZINC000265724350   -0.5300
     19 C19        -2.8260    3.1380   55.3895 C.3     1  ZINC000265724350    0.0100
     20 C20        -2.2207    2.3201   56.5334 C.3     1  ZINC000265724350    0.0600
     21 O21        -1.0579    2.9897   57.0281 O.3     1  ZINC000265724350   -0.3900
     22 C22        -0.0482    3.1984   56.0370 C.3     1  ZINC000265724350    0.0600
     23 C23        -0.6315    4.0251   54.8881 C.3     1  ZINC000265724350    0.0200
     24 O24        -8.1992    1.0257   51.9666 O.3     1  ZINC000265724350   -0.1100
     25 H25       -11.7115   -2.3668   55.5732 H       1  ZINC000265724350    0.0900
     26 H26       -12.6952   -1.3805   54.4651 H       1  ZINC000265724350    0.0600
     27 H27       -11.7498   -2.7510   53.8355 H       1  ZINC000265724350    0.0700
     28 H28        -9.9698   -0.9250   55.0495 H       1  ZINC000265724350    0.4200
     29 H29        -8.8706    1.1268   55.1257 H       1  ZINC000265724350    0.1800
     30 H30        -6.6384    2.4532   54.4239 H       1  ZINC000265724350    0.1700
     31 H31        -4.8942    2.8058   53.1413 H       1  ZINC000265724350    0.4100
     32 H32        -3.9219    2.9199   50.3675 H       1  ZINC000265724350    0.0800
     33 H33        -4.0488    4.4596   51.2513 H       1  ZINC000265724350    0.0700
     34 H34        -1.5655    2.6396   50.1694 H       1  ZINC000265724350    0.0500
     35 H35        -1.4563    4.3507   50.6475 H       1  ZINC000265724350    0.0600
     36 H36        -0.4709    3.1278   51.4853 H       1  ZINC000265724350    0.0700
     37 H37        -1.6854    4.8682   52.9132 H       1  ZINC000265724350    0.0800
     38 H38        -3.3321    4.4972   53.4782 H       1  ZINC000265724350    0.0400
     39 H39        -3.1526    4.1066   55.7677 H       1  ZINC000265724350    0.0400
     40 H40        -3.6791    2.6034   54.9716 H       1  ZINC000265724350    0.0900
     41 H41        -2.9519    2.2196   57.3355 H       1  ZINC000265724350    0.1000
     42 H42        -1.9433    1.3317   56.1670 H       1  ZINC000265724350    0.0600
     43 H43         0.7919    3.7330   56.4802 H       1  ZINC000265724350    0.1000
     44 H44         0.2924    2.2355   55.6562 H       1  ZINC000265724350    0.0600
     45 H45         0.1173    4.1382   54.1042 H       1  ZINC000265724350    0.0900
     46 H46        -0.9230    5.0080   55.2584 H       1  ZINC000265724350    0.0400
@<TRIPOS>BOND
     1     1     2    1
     2     1    25    1
     3     1    26    1
     4     1    27    1
     5     2     3   am
     6     2    28    1
     7     3     4    2
     8     3     5    2
     9     3     6    1
    10     6    24    1
    11     6     7    2
    12     7     8    1
    13     7    29    1
    14     8     9    2
    15     8    30    1
    16     9    10    1
    17     9    24    1
    18    10    11    2
    19    10    12   am
    20    12    13    1
    21    12    31    1
    22    13    14    1
    23    13    32    1
    24    13    33    1
    25    14    15    1
    26    14    16    1
    27    14    17    1
    28    16    34    1
    29    16    35    1
    30    16    36    1
    31    17    18    1
    32    17    37    1
    33    17    38    1
    34    18    23    1
    35    18    19    1
    36    19    20    1
    37    19    39    1
    38    19    40    1
    39    20    21    1
    40    20    41    1
    41    20    42    1
    42    21    22    1
    43    22    23    1
    44    22    43    1
    45    22    44    1
    46    23    45    1
    47    23    46    1
@<TRIPOS>SUBSTRUCTURE
     1 ZINC000265724350        1 TEMP              0 ****  ****    0 ROOT


##########                                Name:    ZINC000492313853
##########                DOCK_Rotatable_Bonds:                   8
##########                         Heavy_Atoms:                  30
##########                    Molecular_Weight:             418.422
##########                DOCK_Rotatable_Bonds:                   8
##########                       Formal_Charge:          -0.0100008
##########                     HBond_Acceptors:                  10
##########                        HBond_Donors:                   2
##########                         Heavy_Atoms:                  30
##########                          Grid_Score:          -29.608620
##########                     Grid_vdw_energy:          -29.349306
##########                      Grid_es_energy:           -0.259313
##########           Internal_energy_repulsive:           10.275418

@<TRIPOS>MOLECULE
ZINC000492313853
 51 53 1 0 0
SMALL
USER_CHARGES


@<TRIPOS>ATOM
      1 C1         -1.4490    3.7130   52.4459 C.3     1  ZINC000492313853    0.0900
      2 N2         -2.5726    3.1397   51.7007 N.pl3   1  ZINC000492313853   -0.6200
      3 C3         -2.4043    2.7665   50.2942 C.3     1  ZINC000492313853    0.1000
      4 C4         -3.7983    2.9498   52.3284 C.ar    1  ZINC000492313853    0.4100
      5 C5         -4.8487    2.3673   51.6271 C.ar    1  ZINC000492313853   -0.2400
      6 C6         -6.0630    2.1838   52.2642 C.ar    1  ZINC000492313853   -0.0100
      7 C7         -6.1860    2.5907   53.5859 C.ar    1  ZINC000492313853   -0.2300
      8 C8         -7.4898    2.4100   54.3198 C.3     1  ZINC000492313853    0.2000
      9 N9         -8.0583    1.1007   53.9902 N.am    1  ZINC000492313853   -0.7300
     10 C10        -9.3123    0.7938   54.3773 C.2     1  ZINC000492313853    0.7100
     11 O11        -9.9723    1.6041   54.9988 O.2     1  ZINC000492313853   -0.5600
     12 N12        -9.8347   -0.4114   54.0755 N.am    1  ZINC000492313853   -0.6600
     13 C13       -11.1321   -0.7298   54.4776 C.2     1  ZINC000492313853    0.3300
     14 C14       -11.4762   -1.4541   55.5747 C.2     1  ZINC000492313853   -0.2600
     15 C15       -12.8805   -1.5403   55.6100 C.2     1  ZINC000492313853    0.1200
     16 C16       -13.6842   -2.2428   56.6412 C.ar    1  ZINC000492313853   -0.0100
     17 C17       -14.5697   -3.2520   56.2697 C.ar    1  ZINC000492313853   -0.0600
     18 C18       -15.3144   -3.9025   57.2329 C.ar    1  ZINC000492313853   -0.1200
     19 C19       -15.1826   -3.5539   58.5647 C.ar    1  ZINC000492313853   -0.0700
     20 C20       -14.3046   -2.5525   58.9393 C.ar    1  ZINC000492313853   -0.1900
     21 C21       -14.1659   -2.1784   60.3925 C.3     1  ZINC000492313853    0.5100
     22 F22       -12.8263   -2.2958   60.7785 F       1  ZINC000492313853   -0.1800
     23 F23       -14.5903   -0.8581   60.5767 F       1  ZINC000492313853   -0.1800
     24 F24       -14.9523   -3.0341   61.1714 F       1  ZINC000492313853   -0.1800
     25 C25       -13.5514   -1.8992   57.9851 C.ar    1  ZINC000492313853   -0.0400
     26 N26       -13.3574   -0.8901   54.5698 N.2     1  ZINC000492313853   -0.2700
     27 N27       -12.2789   -0.3666   53.8458 N.pl3   1  ZINC000492313853   -0.3900
     28 C28       -12.3707    0.4259   52.6170 C.3     1  ZINC000492313853    0.1000
     29 C29        -5.1015    3.1621   54.2213 C.ar    1  ZINC000492313853    0.1700
     30 N30        -3.9536    3.3202   53.5903 N.ar    1  ZINC000492313853   -0.5400
     31 H31        -1.4624    4.7983   52.3456 H       1  ZINC000492313853    0.0600
     32 H32        -1.5363    3.4443   53.4987 H       1  ZINC000492313853    0.0700
     33 H33        -0.5122    3.3228   52.0479 H       1  ZINC000492313853    0.0700
     34 H34        -1.3844    2.9871   49.9791 H       1  ZINC000492313853    0.0700
     35 H35        -2.5987    1.7006   50.1752 H       1  ZINC000492313853    0.0600
     36 H36        -3.1046    3.3341   49.6814 H       1  ZINC000492313853    0.0600
     37 H37        -4.7184    2.0627   50.5993 H       1  ZINC000492313853    0.1300
     38 H38        -6.8966    1.7346   51.7449 H       1  ZINC000492313853    0.1400
     39 H39        -7.3134    2.4696   55.3938 H       1  ZINC000492313853    0.0800
     40 H40        -8.1860    3.1939   54.0219 H       1  ZINC000492313853    0.0800
     41 H41        -7.5322    0.4546   53.4934 H       1  ZINC000492313853    0.4000
     42 H42        -9.3087   -1.0574   53.5786 H       1  ZINC000492313853    0.4100
     43 H43       -10.7938   -1.8867   56.2913 H       1  ZINC000492313853    0.1800
     44 H44       -14.6737   -3.5247   55.2299 H       1  ZINC000492313853    0.1400
     45 H45       -16.0014   -4.6848   56.9460 H       1  ZINC000492313853    0.1400
     46 H46       -15.7673   -4.0651   59.3152 H       1  ZINC000492313853    0.1400
     47 H47       -12.8663   -1.1177   58.2785 H       1  ZINC000492313853    0.1400
     48 H48       -12.4369    1.4837   52.8710 H       1  ZINC000492313853    0.0800
     49 H49       -11.4842    0.2536   52.0066 H       1  ZINC000492313853    0.0800
     50 H50       -13.2591    0.1298   52.0593 H       1  ZINC000492313853    0.1000
     51 H51        -5.1928    3.4800   55.2495 H       1  ZINC000492313853    0.1600
@<TRIPOS>BOND
     1     1     2    1
     2     1    31    1
     3     1    32    1
     4     1    33    1
     5     2     3    1
     6     2     4    1
     7     3    34    1
     8     3    35    1
     9     3    36    1
    10     4    30   ar
    11     4     5   ar
    12     5     6   ar
    13     5    37    1
    14     6     7   ar
    15     6    38    1
    16     7     8    1
    17     7    29   ar
    18     8     9    1
    19     8    39    1
    20     8    40    1
    21     9    10   am
    22     9    41    1
    23    10    11    2
    24    10    12   am
    25    12    13    1
    26    12    42    1
    27    13    27    1
    28    13    14    2
    29    14    15    1
    30    14    43    1
    31    15    16    1
    32    15    26    2
    33    16    25   ar
    34    16    17   ar
    35    17    18   ar
    36    17    44    1
    37    18    19   ar
    38    18    45    1
    39    19    20   ar
    40    19    46    1
    41    20    21    1
    42    20    25   ar
    43    21    22    1
    44    21    23    1
    45    21    24    1
    46    25    47    1
    47    26    27    1
    48    27    28    1
    49    28    48    1
    50    28    49    1
    51    28    50    1
    52    29    30   ar
    53    29    51    1
@<TRIPOS>SUBSTRUCTURE
     1 ZINC000492313853        1 TEMP              0 ****  ****    0 ROOT


##########                                Name:    ZINC000967287417
##########                DOCK_Rotatable_Bonds:                   7
##########                         Heavy_Atoms:                  25
##########                    Molecular_Weight:             347.414
##########                DOCK_Rotatable_Bonds:                   7
##########                       Formal_Charge:          -0.0200002
##########                     HBond_Acceptors:                   7
##########                        HBond_Donors:                   1
##########                         Heavy_Atoms:                  25
##########                          Grid_Score:          -29.575689
##########                     Grid_vdw_energy:          -29.901176
##########                      Grid_es_energy:            0.325487
##########           Internal_energy_repulsive:            8.106548

@<TRIPOS>MOLECULE
ZINC000967287417
 50 52 1 0 0
SMALL
USER_CHARGES


@<TRIPOS>ATOM
      1 C1         -3.9397    2.4721   50.7062 C.3     1  ZINC000967287417    0.0300
      2 O2         -5.0810    2.3193   51.5524 O.3     1  ZINC000967287417   -0.3900
      3 C3         -6.0607    1.4093   51.0482 C.3     1  ZINC000967287417    0.1400
      4 C4         -7.1684    1.2535   52.0580 C.2     1  ZINC000967287417    0.0100
      5 C5         -7.4160    2.0901   53.0899 C.2     1  ZINC000967287417   -0.1900
      6 C6         -8.5289    1.5805   53.7769 C.2     1  ZINC000967287417   -0.1200
      7 C7         -8.9087    0.4446   53.1213 C.2     1  ZINC000967287417   -0.0700
      8 C8        -10.0316   -0.4257   53.4849 C.2     1  ZINC000967287417    0.6100
      9 O9        -10.3607   -1.3351   52.7462 O.2     1  ZINC000967287417   -0.5200
     10 N10       -10.6994   -0.2184   54.6371 N.am    1  ZINC000967287417   -0.7000
     11 C11       -11.8201   -1.0890   55.0012 C.3     1  ZINC000967287417    0.1600
     12 H12       -12.1119   -1.6868   54.1377 H       1  ZINC000967287417    0.1000
     13 C13       -11.3975   -2.0147   56.1441 C.3     1  ZINC000967287417    0.0400
     14 N14       -11.0234   -1.2103   57.3144 N.3     1  ZINC000967287417   -0.5300
     15 C15       -10.4809   -2.0582   58.3843 C.3     1  ZINC000967287417    0.1300
     16 C16        -9.6935   -1.2084   59.3481 C.2     1  ZINC000967287417    0.0200
     17 N17        -8.7699   -0.3414   59.0485 N.2     1  ZINC000967287417   -0.3500
     18 O18        -8.3175    0.1870   60.0376 O.3     1  ZINC000967287417    0.1000
     19 C19        -8.8996   -0.2750   61.1530 C.2     1  ZINC000967287417   -0.0300
     20 C20        -8.5989    0.1460   62.5685 C.3     1  ZINC000967287417   -0.0800
     21 C21        -9.8158   -1.1905   60.7565 C.2     1  ZINC000967287417   -0.2400
     22 C22       -12.1597   -0.4156   57.7977 C.3     1  ZINC000967287417    0.0500
     23 C23       -12.6050    0.5578   56.7040 C.3     1  ZINC000967287417   -0.1100
     24 C24       -13.0059   -0.2331   55.4548 C.3     1  ZINC000967287417   -0.1000
     25 H25       -13.8526   -0.8785   55.6884 H       1  ZINC000967287417    0.0900
     26 C26       -13.3957    0.7377   54.3382 C.3     1  ZINC000967287417   -0.1500
     27 O27        -8.0732    0.2662   52.0771 O.3     1  ZINC000967287417   -0.1600
     28 H28        -4.2564    2.8474   49.7331 H       1  ZINC000967287417    0.0500
     29 H29        -3.2437    3.1784   51.1589 H       1  ZINC000967287417    0.0900
     30 H30        -3.4483    1.5072   50.5812 H       1  ZINC000967287417    0.0500
     31 H31        -6.4709    1.7970   50.1158 H       1  ZINC000967287417    0.0900
     32 H32        -5.5964    0.4401   50.8656 H       1  ZINC000967287417    0.0700
     33 H33        -6.8618    2.9829   53.3391 H       1  ZINC000967287417    0.1600
     34 H34        -8.9945    2.0047   54.6543 H       1  ZINC000967287417    0.1600
     35 H35       -10.4380    0.5072   55.2254 H       1  ZINC000967287417    0.4100
     36 H36       -12.2273   -2.6716   56.4052 H       1  ZINC000967287417    0.0500
     37 H37       -10.5444   -2.6155   55.8286 H       1  ZINC000967287417    0.0900
     38 H38       -11.3005   -2.5439   58.9139 H       1  ZINC000967287417    0.0600
     39 H39        -9.8281   -2.8163   57.9515 H       1  ZINC000967287417    0.0900
     40 H40        -7.8156    0.9038   62.5635 H       1  ZINC000967287417    0.0800
     41 H41        -9.4996    0.5571   63.0243 H       1  ZINC000967287417    0.0900
     42 H42        -8.2641   -0.7189   63.1413 H       1  ZINC000967287417    0.0900
     43 H43       -10.4811   -1.7761   61.3737 H       1  ZINC000967287417    0.1700
     44 H44       -12.9859   -1.0799   58.0510 H       1  ZINC000967287417    0.0400
     45 H45       -11.8602    0.1451   58.6831 H       1  ZINC000967287417    0.0800
     46 H46       -13.4583    1.1367   57.0574 H       1  ZINC000967287417    0.0700
     47 H47       -11.7836    1.2315   56.4600 H       1  ZINC000967287417    0.0700
     48 H48       -12.5476    1.3810   54.1037 H       1  ZINC000967287417    0.0600
     49 H49       -13.6807    0.1740   53.4498 H       1  ZINC000967287417    0.0600
     50 H50       -14.2363    1.3494   54.6656 H       1  ZINC000967287417    0.0600
@<TRIPOS>BOND
     1     1     2    1
     2     1    28    1
     3     1    29    1
     4     1    30    1
     5     2     3    1
     6     3     4    1
     7     3    31    1
     8     3    32    1
     9     4    27    1
    10     4     5    2
    11     5     6    1
    12     5    33    1
    13     6     7    2
    14     6    34    1
    15     7     8    1
    16     7    27    1
    17     8     9    2
    18     8    10   am
    19    10    11    1
    20    10    35    1
    21    11    12    1
    22    11    24    1
    23    11    13    1
    24    13    14    1
    25    13    36    1
    26    13    37    1
    27    14    15    1
    28    14    22    1
    29    15    16    1
    30    15    38    1
    31    15    39    1
    32    16    21    1
    33    16    17    2
    34    17    18    1
    35    18    19    1
    36    19    20    1
    37    19    21    2
    38    20    40    1
    39    20    41    1
    40    20    42    1
    41    21    43    1
    42    22    23    1
    43    22    44    1
    44    22    45    1
    45    23    24    1
    46    23    46    1
    47    23    47    1
    48    24    25    1
    49    24    26    1
    50    26    48    1
    51    26    49    1
    52    26    50    1
@<TRIPOS>SUBSTRUCTURE
     1 ZINC000967287417        1 TEMP              0 ****  ****    0 ROOT


##########                                Name:    ZINC000807524472
##########                DOCK_Rotatable_Bonds:                   9
##########                         Heavy_Atoms:                  28
##########                    Molecular_Weight:             410.534
##########                DOCK_Rotatable_Bonds:                   9
##########                       Formal_Charge:           0.0200006
##########                     HBond_Acceptors:                   8
##########                        HBond_Donors:                   0
##########                         Heavy_Atoms:                  28
##########                          Grid_Score:          -29.573679
##########                     Grid_vdw_energy:          -27.538958
##########                      Grid_es_energy:           -2.034722
##########           Internal_energy_repulsive:           16.087194

@<TRIPOS>MOLECULE
ZINC000807524472
 58 60 1 0 0
SMALL
USER_CHARGES


@<TRIPOS>ATOM
      1 C1        -17.2487    1.6824   63.4808 C.3     1  ZINC000807524472   -0.1500
      2 C2        -16.3361    1.6489   62.2532 C.3     1  ZINC000807524472    0.0600
      3 O3        -17.0980    1.2753   61.1034 O.3     1  ZINC000807524472   -0.3800
      4 C4        -16.3358    1.2131   59.8962 C.3     1  ZINC000807524472    0.0600
      5 C5        -15.2174    0.1807   60.0516 C.3     1  ZINC000807524472    0.0700
      6 O6        -15.7965   -1.1234   60.3199 O.3     1  ZINC000807524472   -0.3500
      7 C7        -14.9405   -2.1521   60.4789 C.2     1  ZINC000807524472    0.5000
      8 O8        -15.2004   -3.0429   61.2636 O.2     1  ZINC000807524472   -0.4600
      9 C9        -13.6902   -2.1968   59.7016 C.ar    1  ZINC000807524472   -0.1200
     10 C10       -12.4863   -1.7881   60.2821 C.ar    1  ZINC000807524472    0.0400
     11 C11       -11.3203   -1.8329   59.5497 C.ar    1  ZINC000807524472   -0.7000
     12 S12        -9.8040   -1.3176   60.2843 S.o2    1  ZINC000807524472    2.6900
     13 O13       -10.0492   -1.2138   61.6802 O.2     1  ZINC000807524472   -0.9500
     14 O14        -8.7892   -2.1455   59.7330 O.2     1  ZINC000807524472   -0.9500
     15 N15        -9.4966    0.2187   59.7480 N.am    1  ZINC000807524472   -0.9900
     16 C16        -8.2756    0.5156   58.9867 C.3     1  ZINC000807524472    0.1200
     17 C17        -8.6671    1.2053   57.6760 C.3     1  ZINC000807524472   -0.1400
     18 C18        -9.5278    2.4320   57.9870 C.3     1  ZINC000807524472   -0.1200
     19 C19       -10.8072    1.9916   58.7020 C.3     1  ZINC000807524472   -0.1400
     20 C20       -10.4429    1.3096   60.0191 C.3     1  ZINC000807524472    0.1200
     21 C21       -11.3335   -2.2814   58.2385 C.ar    1  ZINC000807524472    0.0200
     22 C22       -12.5138   -2.6881   57.6506 C.ar    1  ZINC000807524472   -0.1800
     23 C23       -13.6991   -2.6559   58.3743 C.ar    1  ZINC000807524472    0.2000
     24 N24       -14.8879   -3.0649   57.7854 N.3     1  ZINC000807524472   -0.4800
     25 C25       -15.2085   -2.2311   56.5987 C.3     1  ZINC000807524472    0.0400
     26 C26       -16.2002   -3.1151   55.8015 C.3     1  ZINC000807524472   -0.1200
     27 C27       -15.6359   -4.5396   56.0074 C.3     1  ZINC000807524472   -0.1300
     28 C28       -14.7819   -4.4530   57.2859 C.3     1  ZINC000807524472    0.0400
     29 H29       -17.6829    0.6950   63.6378 H       1  ZINC000807524472    0.0600
     30 H30       -16.6676    1.9674   64.3577 H       1  ZINC000807524472    0.0700
     31 H31       -18.0457    2.4086   63.3213 H       1  ZINC000807524472    0.0700
     32 H32       -15.9020    2.6363   62.0961 H       1  ZINC000807524472    0.0500
     33 H33       -15.5391    0.9227   62.4126 H       1  ZINC000807524472    0.0500
     34 H34       -16.9859    0.9231   59.0707 H       1  ZINC000807524472    0.0600
     35 H35       -15.9012    2.1914   59.6901 H       1  ZINC000807524472    0.0700
     36 H36       -14.6333    0.1367   59.1324 H       1  ZINC000807524472    0.0900
     37 H37       -14.5701    0.4682   60.8801 H       1  ZINC000807524472    0.0800
     38 H38       -12.4702   -1.4373   61.3033 H       1  ZINC000807524472    0.1600
     39 H39        -7.6332    1.1759   59.5694 H       1  ZINC000807524472    0.0800
     40 H40        -7.7469   -0.4121   58.7677 H       1  ZINC000807524472    0.0900
     41 H41        -7.7672    1.5172   57.1461 H       1  ZINC000807524472    0.0800
     42 H42        -9.2336    0.5114   57.0549 H       1  ZINC000807524472    0.0700
     43 H43        -8.9696    3.1139   58.6286 H       1  ZINC000807524472    0.0700
     44 H44        -9.7872    2.9387   57.0575 H       1  ZINC000807524472    0.0700
     45 H45       -11.4304    2.8631   58.9024 H       1  ZINC000807524472    0.0800
     46 H46       -11.3535    1.2903   58.0713 H       1  ZINC000807524472    0.0700
     47 H47       -11.3432    0.9072   60.4835 H       1  ZINC000807524472    0.0900
     48 H48        -9.9761    2.0325   60.6881 H       1  ZINC000807524472    0.0800
     49 H49       -10.4139   -2.3126   57.6730 H       1  ZINC000807524472    0.1500
     50 H50       -12.5154   -3.0360   56.6281 H       1  ZINC000807524472    0.1400
     51 H51       -15.6829   -1.2975   56.9013 H       1  ZINC000807524472    0.0900
     52 H52       -14.3108   -2.0352   56.0123 H       1  ZINC000807524472    0.0500
     53 H53       -17.2059   -3.0352   56.2144 H       1  ZINC000807524472    0.0800
     54 H54       -16.1933   -2.8464   54.7452 H       1  ZINC000807524472    0.0800
     55 H55       -16.4490   -5.2527   56.1432 H       1  ZINC000807524472    0.0800
     56 H56       -15.0170   -4.8277   55.1578 H       1  ZINC000807524472    0.0700
     57 H57       -13.7425   -4.6861   57.0546 H       1  ZINC000807524472    0.0500
     58 H58       -15.1632   -5.1472   58.0348 H       1  ZINC000807524472    0.0900
@<TRIPOS>BOND
     1     1     2    1
     2     1    29    1
     3     1    30    1
     4     1    31    1
     5     2     3    1
     6     2    32    1
     7     2    33    1
     8     3     4    1
     9     4     5    1
    10     4    34    1
    11     4    35    1
    12     5     6    1
    13     5    36    1
    14     5    37    1
    15     6     7    1
    16     7     8    2
    17     7     9    1
    18     9    23   ar
    19     9    10   ar
    20    10    11   ar
    21    10    38    1
    22    11    12    1
    23    11    21   ar
    24    12    13    2
    25    12    14    2
    26    12    15   am
    27    15    20    1
    28    15    16    1
    29    16    17    1
    30    16    39    1
    31    16    40    1
    32    17    18    1
    33    17    41    1
    34    17    42    1
    35    18    19    1
    36    18    43    1
    37    18    44    1
    38    19    20    1
    39    19    45    1
    40    19    46    1
    41    20    47    1
    42    20    48    1
    43    21    22   ar
    44    21    49    1
    45    22    23   ar
    46    22    50    1
    47    23    24    1
    48    24    28    1
    49    24    25    1
    50    25    26    1
    51    25    51    1
    52    25    52    1
    53    26    27    1
    54    26    53    1
    55    26    54    1
    56    27    28    1
    57    27    55    1
    58    27    56    1
    59    28    57    1
    60    28    58    1
@<TRIPOS>SUBSTRUCTURE
     1 ZINC000807524472        1 TEMP              0 ****  ****    0 ROOT


##########                                Name:    ZINC000558213406
##########                DOCK_Rotatable_Bonds:                   8
##########                         Heavy_Atoms:                  30
##########                    Molecular_Weight:               408.5
##########                DOCK_Rotatable_Bonds:                   8
##########                       Formal_Charge:          -0.0299987
##########                     HBond_Acceptors:                   7
##########                        HBond_Donors:                   2
##########                         Heavy_Atoms:                  30
##########                          Grid_Score:          -29.560318
##########                     Grid_vdw_energy:          -27.121283
##########                      Grid_es_energy:           -2.439036
##########           Internal_energy_repulsive:           11.604611

@<TRIPOS>MOLECULE
ZINC000558213406
 58 61 1 0 0
SMALL
USER_CHARGES


@<TRIPOS>ATOM
      1 O1         -6.5665    2.9344   51.0979 O.2     1  ZINC000558213406   -0.5700
      2 C2         -6.1444    2.4507   52.1305 C.2     1  ZINC000558213406    0.7100
      3 N3         -6.9682    1.7447   52.9301 N.am    1  ZINC000558213406   -0.6800
      4 C4         -8.3128    1.5731   52.5743 C.ar    1  ZINC000558213406    0.1700
      5 C5         -8.7361    0.3736   52.0176 C.ar    1  ZINC000558213406   -0.1300
      6 C6        -10.0612    0.2049   51.6677 C.ar    1  ZINC000558213406   -0.1100
      7 C7        -10.9694    1.2337   51.8718 C.ar    1  ZINC000558213406    0.0600
      8 O8        -12.2738    1.0672   51.5267 O.3     1  ZINC000558213406   -0.2500
      9 C9        -13.1376    0.6394   52.4846 C.ar    1  ZINC000558213406    0.0700
     10 C10       -12.6691    0.2598   53.7385 C.ar    1  ZINC000558213406   -0.1500
     11 C11       -13.5882   -0.1695   54.6824 C.ar    1  ZINC000558213406   -0.1300
     12 C12       -14.9295   -0.2063   54.3505 C.ar    1  ZINC000558213406    0.0600
     13 N13       -15.3408    0.1601   53.1522 N.ar    1  ZINC000558213406   -0.4500
     14 C14       -14.5001    0.5803   52.2281 C.ar    1  ZINC000558213406    0.0800
     15 C15       -10.5469    2.4322   52.4285 C.ar    1  ZINC000558213406   -0.1000
     16 C16        -9.2231    2.6002   52.7837 C.ar    1  ZINC000558213406   -0.1100
     17 N17        -4.8513    2.6157   52.4727 N.am    1  ZINC000558213406   -0.7300
     18 C18        -3.9557    3.3831   51.6035 C.3     1  ZINC000558213406    0.1500
     19 H19        -4.4909    4.2076   51.1323 H       1  ZINC000558213406    0.1100
     20 C20        -2.7326    3.9072   52.4013 C.3     1  ZINC000558213406   -0.1400
     21 C21        -1.6675    4.0423   51.2845 C.3     1  ZINC000558213406    0.1000
     22 N22        -1.9110    2.8958   50.3902 N.am    1  ZINC000558213406   -0.6200
     23 C23        -1.0019    2.3321   49.5703 C.2     1  ZINC000558213406    0.5400
     24 O24        -1.3144    1.3884   48.8757 O.2     1  ZINC000558213406   -0.5300
     25 C25         0.4031    2.8746   49.5168 C.3     1  ZINC000558213406   -0.1000
     26 C26         1.3400    1.8086   48.9453 C.3     1  ZINC000558213406   -0.1100
     27 C27         2.7664    2.3593   48.8910 C.3     1  ZINC000558213406   -0.1200
     28 C28         2.8002    3.6003   47.9968 C.3     1  ZINC000558213406   -0.1200
     29 C29         1.8633    4.6663   48.5684 C.3     1  ZINC000558213406   -0.1200
     30 C30         0.4369    4.1156   48.6227 C.3     1  ZINC000558213406   -0.1100
     31 C31        -3.3134    2.4694   50.5385 C.3     1  ZINC000558213406    0.1000
     32 H32        -6.6305    1.3554   53.7518 H       1  ZINC000558213406    0.4100
     33 H33        -8.0291   -0.4270   51.8580 H       1  ZINC000558213406    0.1300
     34 H34       -10.3905   -0.7282   51.2346 H       1  ZINC000558213406    0.1400
     35 H35       -11.6150    0.2984   53.9702 H       1  ZINC000558213406    0.1400
     36 H36       -13.2604   -0.4721   55.6660 H       1  ZINC000558213406    0.1400
     37 H37       -15.6504   -0.5399   55.0822 H       1  ZINC000558213406    0.1600
     38 H38       -14.8744    0.8723   51.2580 H       1  ZINC000558213406    0.1700
     39 H39       -11.2543    3.2328   52.5873 H       1  ZINC000558213406    0.1400
     40 H40        -8.8945    3.5332   53.2173 H       1  ZINC000558213406    0.1500
     41 H41        -4.5136    2.2264   53.2944 H       1  ZINC000558213406    0.4000
     42 H42        -2.9475    4.8746   52.8552 H       1  ZINC000558213406    0.0900
     43 H43        -2.4190    3.1849   53.1549 H       1  ZINC000558213406    0.0800
     44 H44        -1.8009    4.9796   50.7445 H       1  ZINC000558213406    0.0700
     45 H45        -0.6648    3.9868   51.7079 H       1  ZINC000558213406    0.0800
     46 H46         0.7277    3.1423   50.5224 H       1  ZINC000558213406    0.0900
     47 H47         1.3159    0.9243   49.5823 H       1  ZINC000558213406    0.0600
     48 H48         1.0153    1.5408   47.9398 H       1  ZINC000558213406    0.0700
     49 H49         3.0910    2.6269   49.8965 H       1  ZINC000558213406    0.0600
     50 H50         3.4338    1.5998   48.4838 H       1  ZINC000558213406    0.0700
     51 H51         3.8164    3.9926   47.9582 H       1  ZINC000558213406    0.0600
     52 H52         2.4755    3.3326   46.9913 H       1  ZINC000558213406    0.0600
     53 H53         2.1880    4.9341   49.5739 H       1  ZINC000558213406    0.0600
     54 H54         1.8874    5.5505   47.9314 H       1  ZINC000558213406    0.0700
     55 H55         0.1122    3.8480   47.6172 H       1  ZINC000558213406    0.0800
     56 H56        -0.2306    4.8751   49.0299 H       1  ZINC000558213406    0.0600
     57 H57        -3.3523    1.4322   50.8710 H       1  ZINC000558213406    0.0800
     58 H58        -3.8358    2.5760   49.5878 H       1  ZINC000558213406    0.0800
@<TRIPOS>BOND
     1     1     2    2
     2     2     3   am
     3     2    17   am
     4     3     4    1
     5     3    32    1
     6     4    16   ar
     7     4     5   ar
     8     5     6   ar
     9     5    33    1
    10     6     7   ar
    11     6    34    1
    12     7     8    1
    13     7    15   ar
    14     8     9    1
    15     9    14   ar
    16     9    10   ar
    17    10    11   ar
    18    10    35    1
    19    11    12   ar
    20    11    36    1
    21    12    13   ar
    22    12    37    1
    23    13    14   ar
    24    14    38    1
    25    15    16   ar
    26    15    39    1
    27    16    40    1
    28    17    18    1
    29    17    41    1
    30    18    19    1
    31    18    31    1
    32    18    20    1
    33    20    21    1
    34    20    42    1
    35    20    43    1
    36    21    22    1
    37    21    44    1
    38    21    45    1
    39    22    23   am
    40    22    31    1
    41    23    24    2
    42    23    25    1
    43    25    30    1
    44    25    26    1
    45    25    46    1
    46    26    27    1
    47    26    47    1
    48    26    48    1
    49    27    28    1
    50    27    49    1
    51    27    50    1
    52    28    29    1
    53    28    51    1
    54    28    52    1
    55    29    30    1
    56    29    53    1
    57    29    54    1
    58    30    55    1
    59    30    56    1
    60    31    57    1
    61    31    58    1
@<TRIPOS>SUBSTRUCTURE
     1 ZINC000558213406        1 TEMP              0 ****  ****    0 ROOT


##########                                Name:    ZINC000265786263
##########                DOCK_Rotatable_Bonds:                   7
##########                         Heavy_Atoms:                  28
##########                    Molecular_Weight:             386.451
##########                DOCK_Rotatable_Bonds:                   7
##########                       Formal_Charge:           0.0499992
##########                     HBond_Acceptors:                   8
##########                        HBond_Donors:                   2
##########                         Heavy_Atoms:                  28
##########                          Grid_Score:          -29.546658
##########                     Grid_vdw_energy:          -28.165432
##########                      Grid_es_energy:           -1.381225
##########           Internal_energy_repulsive:           24.338886

@<TRIPOS>MOLECULE
ZINC000265786263
 54 57 1 0 0
SMALL
USER_CHARGES


@<TRIPOS>ATOM
      1 C1         -8.3032    0.1700   63.2725 C.3     1  ZINC000265786263   -0.1500
      2 C2         -8.8228    0.2515   61.8357 C.3     1  ZINC000265786263    0.1600
      3 C3         -8.9176    1.7095   61.3813 C.3     1  ZINC000265786263   -0.1600
      4 C4         -8.3062    2.0680   60.0254 C.3     1  ZINC000265786263   -0.1600
      5 C5         -9.8264    2.0205   60.1905 C.3     1  ZINC000265786263   -0.1600
      6 N6         -7.9591   -0.5226   60.9276 N.am    1  ZINC000265786263   -0.7100
      7 C7         -8.7294   -1.4876   60.3936 C.2     1  ZINC000265786263    0.7100
      8 O8         -8.3254   -2.3100   59.5950 O.2     1  ZINC000265786263   -0.5400
      9 N9         -9.9899   -1.4408   60.8396 N.am    1  ZINC000265786263   -0.5600
     10 C10       -11.0440   -2.3708   60.4270 C.3     1  ZINC000265786263    0.1000
     11 C11       -12.2541   -1.5919   59.9797 C.2     1  ZINC000265786263    0.5100
     12 O12       -13.2386   -1.5423   60.6862 O.2     1  ZINC000265786263   -0.5300
     13 N13       -12.2422   -0.9504   58.7944 N.am    1  ZINC000265786263   -0.6100
     14 C14       -11.0617   -1.0041   57.9188 C.3     1  ZINC000265786263    0.1100
     15 C15       -11.5149   -1.4210   56.5156 C.3     1  ZINC000265786263    0.0400
     16 N16       -12.5841   -0.5214   56.0623 N.3     1  ZINC000265786263   -0.5300
     17 C17       -12.9278   -0.7782   54.6574 C.3     1  ZINC000265786263    0.0900
     18 C18       -11.8968   -0.1393   53.7631 C.ar    1  ZINC000265786263   -0.0600
     19 C19       -10.9310   -0.9197   53.1554 C.ar    1  ZINC000265786263   -0.1300
     20 C20        -9.9834   -0.3365   52.3342 C.ar    1  ZINC000265786263   -0.1000
     21 C21        -9.9999    1.0278   52.1191 C.ar    1  ZINC000265786263   -0.1400
     22 C22       -10.9683    1.8132   52.7279 C.ar    1  ZINC000265786263    0.1100
     23 O23       -10.9868    3.1557   52.5176 O.3     1  ZINC000265786263   -0.5000
     24 C24       -11.9210    1.2251   53.5467 C.ar    1  ZINC000265786263   -0.1200
     25 C25       -13.7702   -0.6276   56.9223 C.3     1  ZINC000265786263    0.0400
     26 C26       -13.4117   -0.1832   58.3395 C.3     1  ZINC000265786263    0.1200
     27 C27       -10.1699   -0.4330   61.7162 C.2     1  ZINC000265786263    0.5400
     28 O28       -11.1957   -0.1363   62.2902 O.2     1  ZINC000265786263   -0.4500
     29 H29        -8.2066   -0.8755   63.5652 H       1  ZINC000265786263    0.0700
     30 H30        -7.3297    0.6562   63.3349 H       1  ZINC000265786263    0.0800
     31 H31        -9.0031    0.6713   63.9410 H       1  ZINC000265786263    0.0900
     32 H32        -8.8551    2.4542   62.1748 H       1  ZINC000265786263    0.1100
     33 H33        -7.8411    3.0489   59.9267 H       1  ZINC000265786263    0.1000
     34 H34        -7.8363    1.2653   59.4571 H       1  ZINC000265786263    0.1100
     35 H35       -10.3569    1.1867   59.7308 H       1  ZINC000265786263    0.1000
     36 H36       -10.3615    2.9702   60.2004 H       1  ZINC000265786263    0.1000
     37 H37        -7.0186   -0.3666   60.7490 H       1  ZINC000265786263    0.4400
     38 H38       -10.6832   -2.9865   59.6030 H       1  ZINC000265786263    0.1300
     39 H39       -11.3138   -3.0103   61.2674 H       1  ZINC000265786263    0.1300
     40 H40       -10.5932   -0.0209   57.8751 H       1  ZINC000265786263    0.0900
     41 H41       -10.3513   -1.7344   58.3063 H       1  ZINC000265786263    0.0900
     42 H42       -10.6717   -1.3594   55.8277 H       1  ZINC000265786263    0.0900
     43 H43       -11.8883   -2.4448   56.5431 H       1  ZINC000265786263    0.0400
     44 H44       -12.9476   -1.8533   54.4789 H       1  ZINC000265786263    0.0900
     45 H45       -13.9089   -0.3558   54.4403 H       1  ZINC000265786263    0.0500
     46 H46       -10.9162   -1.9866   53.3225 H       1  ZINC000265786263    0.1200
     47 H47        -9.2298   -0.9483   51.8608 H       1  ZINC000265786263    0.1300
     48 H48        -9.2594    1.4827   51.4779 H       1  ZINC000265786263    0.1300
     49 H49       -11.6948    3.6176   52.9871 H       1  ZINC000265786263    0.3900
     50 H50       -12.6757    1.8343   54.0217 H       1  ZINC000265786263    0.1300
     51 H51       -14.5626    0.0094   56.5295 H       1  ZINC000265786263    0.1000
     52 H52       -14.1121   -1.6624   56.9442 H       1  ZINC000265786263    0.0400
     53 H53       -14.2545   -0.3681   59.0055 H       1  ZINC000265786263    0.1000
     54 H54       -13.1677    0.8792   58.3394 H       1  ZINC000265786263    0.0800
@<TRIPOS>BOND
     1     1     2    1
     2     1    29    1
     3     1    30    1
     4     1    31    1
     5     2    27    1
     6     2     3    1
     7     2     6    1
     8     3     5    1
     9     3     4    1
    10     3    32    1
    11     4     5    1
    12     4    33    1
    13     4    34    1
    14     5    35    1
    15     5    36    1
    16     6     7   am
    17     6    37    1
    18     7     8    2
    19     7     9   am
    20     9    10    1
    21     9    27   am
    22    10    11    1
    23    10    38    1
    24    10    39    1
    25    11    12    2
    26    11    13   am
    27    13    26    1
    28    13    14    1
    29    14    15    1
    30    14    40    1
    31    14    41    1
    32    15    16    1
    33    15    42    1
    34    15    43    1
    35    16    17    1
    36    16    25    1
    37    17    18    1
    38    17    44    1
    39    17    45    1
    40    18    24   ar
    41    18    19   ar
    42    19    20   ar
    43    19    46    1
    44    20    21   ar
    45    20    47    1
    46    21    22   ar
    47    21    48    1
    48    22    23    1
    49    22    24   ar
    50    23    49    1
    51    24    50    1
    52    25    26    1
    53    25    51    1
    54    25    52    1
    55    26    53    1
    56    26    54    1
    57    27    28    2
@<TRIPOS>SUBSTRUCTURE
     1 ZINC000265786263        1 TEMP              0 ****  ****    0 ROOT


##########                                Name:    ZINC000151850193
##########                DOCK_Rotatable_Bonds:                  11
##########                         Heavy_Atoms:                  23
##########                    Molecular_Weight:             328.452
##########                DOCK_Rotatable_Bonds:                  11
##########                       Formal_Charge:            0.039999
##########                     HBond_Acceptors:                   6
##########                        HBond_Donors:                   2
##########                         Heavy_Atoms:                  23
##########                          Grid_Score:          -29.531208
##########                     Grid_vdw_energy:          -29.674585
##########                      Grid_es_energy:            0.143378
##########           Internal_energy_repulsive:           50.970257

@<TRIPOS>MOLECULE
ZINC000151850193
 55 55 1 0 0
SMALL
USER_CHARGES


@<TRIPOS>ATOM
      1 C1        -11.7706    0.2898   55.2258 C.3     1  ZINC000151850193   -0.1500
      2 C2        -10.4527   -0.2058   54.6269 C.3     1  ZINC000151850193   -0.1000
      3 C3        -10.0244    0.7284   53.4935 C.3     1  ZINC000151850193   -0.0800
      4 C4         -9.7503    2.1557   53.9714 C.3     1  ZINC000151850193   -0.1000
      5 C5         -8.6077    2.1422   54.9889 C.3     1  ZINC000151850193   -0.1500
      6 C6         -8.9100    0.1493   52.6060 C.3     1  ZINC000151850193    0.1400
      7 H7         -8.2880   -0.5890   53.1120 H       1  ZINC000151850193    0.1000
      8 N8         -8.1261    1.1707   51.9071 N.am    1  ZINC000151850193   -0.7000
      9 C9         -6.9402    0.8484   51.3535 C.2     1  ZINC000151850193    0.5200
     10 O10        -6.5215   -0.2869   51.4353 O.2     1  ZINC000151850193   -0.5300
     11 C11        -6.1346    1.8986   50.6331 C.3     1  ZINC000151850193   -0.1500
     12 C12        -4.6845    1.8509   51.1183 C.3     1  ZINC000151850193    0.1500
     13 N13        -3.8833    2.8135   50.3582 N.am    1  ZINC000151850193   -0.7100
     14 C14        -2.5476    2.6564   50.2684 C.2     1  ZINC000151850193    0.6500
     15 O15        -2.0079    1.7173   50.8190 O.2     1  ZINC000151850193   -0.5600
     16 O16        -1.8115    3.5402   49.5685 O.3     1  ZINC000151850193   -0.3700
     17 C17        -0.3787    3.3109   49.5179 C.3     1  ZINC000151850193    0.1400
     18 C18         0.2868    4.4193   48.6997 C.3     1  ZINC000151850193   -0.1800
     19 C19         0.1890    3.3150   50.9387 C.3     1  ZINC000151850193   -0.1400
     20 C20        -0.1018    1.9565   48.8621 C.3     1  ZINC000151850193   -0.1800
     21 C21       -10.0246   -0.4698   51.7461 C.3     1  ZINC000151850193   -0.1700
     22 C22       -10.9373    0.6570   52.2580 C.3     1  ZINC000151850193    0.0700
     23 H23       -11.9521    0.3285   52.4834 H       1  ZINC000151850193    0.0800
     24 O24       -10.9020    1.8344   51.4492 O.3     1  ZINC000151850193   -0.3700
     25 C25       -12.1647    2.4917   51.3239 C.3     1  ZINC000151850193    0.0300
     26 H26       -11.6270    1.2852   55.6464 H       1  ZINC000151850193    0.0600
     27 H27       -12.5312    0.3311   54.4461 H       1  ZINC000151850193    0.0600
     28 H28       -12.0924   -0.3937   56.0115 H       1  ZINC000151850193    0.0600
     29 H29        -9.6838   -0.2163   55.3995 H       1  ZINC000151850193    0.0700
     30 H30       -10.5880   -1.2139   54.2353 H       1  ZINC000151850193    0.0700
     31 H31        -9.4715    2.7768   53.1202 H       1  ZINC000151850193    0.0700
     32 H32       -10.6479    2.5610   54.4385 H       1  ZINC000151850193    0.0700
     33 H33        -8.9141    1.5815   55.8720 H       1  ZINC000151850193    0.0500
     34 H34        -7.7313    1.6701   54.5447 H       1  ZINC000151850193    0.0500
     35 H35        -8.3636    3.1653   55.2748 H       1  ZINC000151850193    0.0500
     36 H36        -8.4605    2.0789   51.8426 H       1  ZINC000151850193    0.4100
     37 H37        -6.1653    1.7075   49.5603 H       1  ZINC000151850193    0.1000
     38 H38        -6.5544    2.8832   50.8388 H       1  ZINC000151850193    0.1000
     39 H39        -4.6473    2.1036   52.1779 H       1  ZINC000151850193    0.0800
     40 H40        -4.2844    0.8478   50.9698 H       1  ZINC000151850193    0.0800
     41 H41        -4.3139    3.5639   49.9197 H       1  ZINC000151850193    0.4100
     42 H42         0.0895    5.3841   49.1670 H       1  ZINC000151850193    0.0600
     43 H43         1.3623    4.2470   48.6617 H       1  ZINC000151850193    0.0700
     44 H44        -0.1177    4.4163   47.6875 H       1  ZINC000151850193    0.0900
     45 H45        -0.2851    2.5254   51.5217 H       1  ZINC000151850193    0.0700
     46 H46         1.2646    3.1428   50.9009 H       1  ZINC000151850193    0.0800
     47 H47        -0.0083    4.2798   51.4060 H       1  ZINC000151850193    0.0700
     48 H48        -0.5062    1.9536   47.8500 H       1  ZINC000151850193    0.0900
     49 H49         0.9739    1.7843   48.8241 H       1  ZINC000151850193    0.0700
     50 H50        -0.5758    1.1668   49.4451 H       1  ZINC000151850193    0.0600
     51 H51        -9.8284   -0.4201   50.6751 H       1  ZINC000151850193    0.0800
     52 H52       -10.3298   -1.4628   52.0759 H       1  ZINC000151850193    0.1000
     53 H53       -12.8851    1.8112   50.8701 H       1  ZINC000151850193    0.0400
     54 H54       -12.5185    2.7900   52.3108 H       1  ZINC000151850193    0.0400
     55 H55       -12.0536    3.3753   50.6954 H       1  ZINC000151850193    0.0900
@<TRIPOS>BOND
     1     1     2    1
     2     1    26    1
     3     1    27    1
     4     1    28    1
     5     2     3    1
     6     2    29    1
     7     2    30    1
     8     3    22    1
     9     3     4    1
    10     3     6    1
    11     4     5    1
    12     4    31    1
    13     4    32    1
    14     5    33    1
    15     5    34    1
    16     5    35    1
    17     6     7    1
    18     6     8    1
    19     6    21    1
    20     8     9   am
    21     8    36    1
    22     9    10    2
    23     9    11    1
    24    11    12    1
    25    11    37    1
    26    11    38    1
    27    12    13    1
    28    12    39    1
    29    12    40    1
    30    13    14   am
    31    13    41    1
    32    14    15    2
    33    14    16    1
    34    16    17    1
    35    17    18    1
    36    17    19    1
    37    17    20    1
    38    18    42    1
    39    18    43    1
    40    18    44    1
    41    19    45    1
    42    19    46    1
    43    19    47    1
    44    20    48    1
    45    20    49    1
    46    20    50    1
    47    21    22    1
    48    21    51    1
    49    21    52    1
    50    22    23    1
    51    22    24    1
    52    24    25    1
    53    25    53    1
    54    25    54    1
    55    25    55    1
@<TRIPOS>SUBSTRUCTURE
     1 ZINC000151850193        1 TEMP              0 ****  ****    0 ROOT


##########                                Name:    ZINC000020646552
##########                DOCK_Rotatable_Bonds:                   5
##########                         Heavy_Atoms:                  29
##########                    Molecular_Weight:             412.556
##########                DOCK_Rotatable_Bonds:                   5
##########                       Formal_Charge:          -0.0200012
##########                     HBond_Acceptors:                   7
##########                        HBond_Donors:                   0
##########                         Heavy_Atoms:                  29
##########                          Grid_Score:          -29.530216
##########                     Grid_vdw_energy:          -30.651295
##########                      Grid_es_energy:            1.121078
##########           Internal_energy_repulsive:           13.697683

@<TRIPOS>MOLECULE
ZINC000020646552
 57 60 1 0 0
SMALL
USER_CHARGES


@<TRIPOS>ATOM
      1 C1         -9.1149    2.2437   64.5597 C.3     1  ZINC000020646552    0.0200
      2 N2         -9.3024    1.5246   63.2926 N.3     1  ZINC000020646552   -0.5400
      3 C3         -8.4956    0.2975   63.2593 C.3     1  ZINC000020646552    0.0400
      4 C4         -8.8541   -0.5119   62.0084 C.3     1  ZINC000020646552    0.1200
      5 N5         -8.7108    0.3587   60.8317 N.am    1  ZINC000020646552   -0.6100
      6 C6         -7.9853   -0.0331   59.7655 C.2     1  ZINC000020646552    0.5300
      7 O7         -7.4414   -1.1170   59.7674 O.2     1  ZINC000020646552   -0.5200
      8 C8         -7.8503    0.8757   58.5710 C.3     1  ZINC000020646552   -0.1500
      9 S9         -9.3871    0.8480   57.6151 S.3     1  ZINC000020646552    0.0500
     10 C10        -8.7924    1.4319   56.0627 C.ar    1  ZINC000020646552    0.1500
     11 N11        -7.5946    1.9995   55.9695 N.ar    1  ZINC000020646552   -0.5200
     12 C12        -7.1469    2.4392   54.8017 C.ar    1  ZINC000020646552    0.3800
     13 C13        -5.8041    3.0655   54.7314 C.ar    1  ZINC000020646552   -0.0500
     14 C14        -4.8801    2.8556   55.7535 C.ar    1  ZINC000020646552   -0.0700
     15 C15        -3.6320    3.4405   55.6826 C.ar    1  ZINC000020646552   -0.1300
     16 C16        -3.2976    4.2337   54.5998 C.ar    1  ZINC000020646552   -0.1000
     17 C17        -4.2109    4.4458   53.5827 C.ar    1  ZINC000020646552   -0.1300
     18 C18        -5.4598    3.8614   53.6403 C.ar    1  ZINC000020646552   -0.0700
     19 N19        -7.8687    2.3328   53.6957 N.ar    1  ZINC000020646552   -0.5200
     20 C20        -9.0737    1.7772   53.7175 C.ar    1  ZINC000020646552    0.2100
     21 C21        -9.5721    1.2997   54.9079 C.ar    1  ZINC000020646552   -0.2100
     22 C22       -10.9249    0.6489   54.9964 C.3     1  ZINC000020646552    0.1100
     23 O23       -11.6911    0.9449   53.8281 O.3     1  ZINC000020646552   -0.3600
     24 C24       -10.9945    0.6616   52.6095 C.3     1  ZINC000020646552    0.1100
     25 C25       -10.4024   -0.7478   52.6720 C.3     1  ZINC000020646552   -0.1800
     26 C26       -11.9632    0.7601   51.4293 C.3     1  ZINC000020646552   -0.1400
     27 C27        -9.8664    1.6795   52.4408 C.3     1  ZINC000020646552   -0.0900
     28 C28        -9.3805    1.6682   60.8492 C.3     1  ZINC000020646552    0.1100
     29 C29        -9.0012    2.3916   62.1457 C.3     1  ZINC000020646552    0.0400
     30 H30        -9.7801    3.1066   64.5897 H       1  ZINC000020646552    0.0700
     31 H31        -9.3446    1.5788   65.3923 H       1  ZINC000020646552    0.0700
     32 H32        -8.0808    2.5794   64.6374 H       1  ZINC000020646552    0.0300
     33 H33        -7.4376    0.5584   63.2328 H       1  ZINC000020646552    0.0400
     34 H34        -8.7016   -0.2976   64.1490 H       1  ZINC000020646552    0.0900
     35 H35        -8.1802   -1.3637   61.9179 H       1  ZINC000020646552    0.1000
     36 H36        -9.8837   -0.8621   62.0815 H       1  ZINC000020646552    0.0800
     37 H37        -7.6507    1.8926   58.9087 H       1  ZINC000020646552    0.1300
     38 H38        -7.0267    0.5326   57.9447 H       1  ZINC000020646552    0.1200
     39 H39        -5.1403    2.2368   56.5994 H       1  ZINC000020646552    0.1400
     40 H40        -2.9153    3.2788   56.4741 H       1  ZINC000020646552    0.1300
     41 H41        -2.3198    4.6893   54.5484 H       1  ZINC000020646552    0.1300
     42 H42        -3.9445    5.0664   52.7399 H       1  ZINC000020646552    0.1300
     43 H43        -6.1721    4.0276   52.8457 H       1  ZINC000020646552    0.1300
     44 H44       -10.8013   -0.4306   55.0835 H       1  ZINC000020646552    0.0800
     45 H45       -11.4487    1.0226   55.8762 H       1  ZINC000020646552    0.1100
     46 H46       -11.2046   -1.4731   52.8074 H       1  ZINC000020646552    0.0700
     47 H47        -9.8728   -0.9610   51.7434 H       1  ZINC000020646552    0.0700
     48 H48        -9.7080   -0.8134   53.5096 H       1  ZINC000020646552    0.0600
     49 H49       -12.3786    1.7667   51.3832 H       1  ZINC000020646552    0.0700
     50 H50       -11.4305    0.5441   50.5032 H       1  ZINC000020646552    0.0800
     51 H51       -12.7704    0.0395   51.5608 H       1  ZINC000020646552    0.0700
     52 H52       -10.2910    2.6562   52.2087 H       1  ZINC000020646552    0.1000
     53 H53        -9.2135    1.3657   51.6263 H       1  ZINC000020646552    0.1000
     54 H54        -9.0545    2.2575   59.9921 H       1  ZINC000020646552    0.0900
     55 H55       -10.4607    1.5275   60.8108 H       1  ZINC000020646552    0.0800
     56 H56        -9.5740    3.3153   62.2276 H       1  ZINC000020646552    0.0900
     57 H57        -7.9362    2.6234   62.1346 H       1  ZINC000020646552    0.0400
@<TRIPOS>BOND
     1     1     2    1
     2     1    30    1
     3     1    31    1
     4     1    32    1
     5     2    29    1
     6     2     3    1
     7     3     4    1
     8     3    33    1
     9     3    34    1
    10     4     5    1
    11     4    35    1
    12     4    36    1
    13     5     6   am
    14     5    28    1
    15     6     7    2
    16     6     8    1
    17     8     9    1
    18     8    37    1
    19     8    38    1
    20     9    10    1
    21    10    21   ar
    22    10    11   ar
    23    11    12   ar
    24    12    13    1
    25    12    19   ar
    26    13    18   ar
    27    13    14   ar
    28    14    15   ar
    29    14    39    1
    30    15    16   ar
    31    15    40    1
    32    16    17   ar
    33    16    41    1
    34    17    18   ar
    35    17    42    1
    36    18    43    1
    37    19    20   ar
    38    20    27    1
    39    20    21   ar
    40    21    22    1
    41    22    23    1
    42    22    44    1
    43    22    45    1
    44    23    24    1
    45    24    25    1
    46    24    26    1
    47    24    27    1
    48    25    46    1
    49    25    47    1
    50    25    48    1
    51    26    49    1
    52    26    50    1
    53    26    51    1
    54    27    52    1
    55    27    53    1
    56    28    29    1
    57    28    54    1
    58    28    55    1
    59    29    56    1
    60    29    57    1
@<TRIPOS>SUBSTRUCTURE
     1 ZINC000020646552        1 TEMP              0 ****  ****    0 ROOT


##########                                Name:    ZINC000004313955
##########                DOCK_Rotatable_Bonds:                   6
##########                         Heavy_Atoms:                  26
##########                    Molecular_Weight:             414.358
##########                DOCK_Rotatable_Bonds:                   6
##########                       Formal_Charge:           0.0299997
##########                     HBond_Acceptors:                   9
##########                        HBond_Donors:                   2
##########                         Heavy_Atoms:                  26
##########                          Grid_Score:          -29.520689
##########                     Grid_vdw_energy:          -28.537920
##########                      Grid_es_energy:           -0.982769
##########           Internal_energy_repulsive:           16.801779

@<TRIPOS>MOLECULE
ZINC000004313955
 47 49 1 0 0
SMALL
USER_CHARGES


@<TRIPOS>ATOM
      1 C1          3.2277   -0.2152   49.1140 C.3     1  ZINC000004313955   -0.1500
      2 C2          2.5208    1.0955   49.4653 C.3     1  ZINC000004313955   -0.1100
      3 H3          2.4539    1.7224   48.5761 H       1  ZINC000004313955    0.0800
      4 C4          3.3142    1.8292   50.5489 C.3     1  ZINC000004313955   -0.1100
      5 C5          2.6257    3.1559   50.8777 C.3     1  ZINC000004313955   -0.1100
      6 H6          3.2040    3.6886   51.6327 H       1  ZINC000004313955    0.0900
      7 C7          2.5304    4.0093   49.6113 C.3     1  ZINC000004313955   -0.1500
      8 C8          1.2183    2.8769   51.4142 C.3     1  ZINC000004313955    0.1200
      9 N9          0.4964    2.0477   50.4395 N.am    1  ZINC000004313955   -0.6000
     10 C10        -0.7076    2.4307   49.9702 C.2     1  ZINC000004313955    0.5400
     11 O11        -1.2927    1.7381   49.1647 O.2     1  ZINC000004313955   -0.5300
     12 C12        -1.3265    3.7197   50.4461 C.3     1  ZINC000004313955   -0.1400
     13 S13        -2.1721    3.4372   52.0214 S.3     1  ZINC000004313955    0.0800
     14 C14        -3.7308    2.8635   51.4333 C.2     1  ZINC000004313955    0.1100
     15 N15        -4.0016    2.4547   50.2141 N.2     1  ZINC000004313955   -0.2800
     16 N16        -5.2354    2.1055   50.1294 N.2     1  ZINC000004313955   -0.2400
     17 C17        -5.8283    2.2697   51.2891 C.2     1  ZINC000004313955    0.2500
     18 C18        -7.2444    1.9820   51.6004 C.ar    1  ZINC000004313955   -0.0100
     19 C19        -7.6447    0.6796   51.9023 C.ar    1  ZINC000004313955   -0.0700
     20 C20        -8.9677    0.4171   52.1918 C.ar    1  ZINC000004313955   -0.1100
     21 C21        -9.8985    1.4422   52.1831 C.ar    1  ZINC000004313955   -0.0100
     22 Cl22      -11.5614    1.1029   52.5482 Cl      1  ZINC000004313955   -0.0500
     23 C23        -9.5084    2.7369   51.8849 C.ar    1  ZINC000004313955   -0.1100
     24 C24        -8.1866    3.0136   51.5991 C.ar    1  ZINC000004313955    0.0100
     25 Cl25       -7.6986    4.6371   51.2252 Cl      1  ZINC000004313955   -0.0100
     26 N26        -4.8815    2.7552   52.1613 N.pl3   1  ZINC000004313955   -0.3000
     27 N27        -5.0576    3.0706   53.4787 N.3     1  ZINC000004313955   -0.5800
     28 C28         1.1119    0.7933   49.9850 C.3     1  ZINC000004313955    0.1100
     29 H29         2.6616   -0.7379   48.3430 H       1  ZINC000004313955    0.0600
     30 H30         4.2305    0.0003   48.7453 H       1  ZINC000004313955    0.0600
     31 H31         3.2944   -0.8417   50.0034 H       1  ZINC000004313955    0.0600
     32 H32         3.3603    1.2119   51.4461 H       1  ZINC000004313955    0.0700
     33 H33         4.3250    2.0237   50.1901 H       1  ZINC000004313955    0.0700
     34 H34         1.9512    3.4766   48.8570 H       1  ZINC000004313955    0.0600
     35 H35         2.0400    4.9540   49.8459 H       1  ZINC000004313955    0.0600
     36 H36         3.5322    4.2050   49.2288 H       1  ZINC000004313955    0.0600
     37 H37         1.2878    2.3472   52.3643 H       1  ZINC000004313955    0.0700
     38 H38         0.6882    3.8187   51.5564 H       1  ZINC000004313955    0.1000
     39 H39        -0.5465    4.4689   50.5817 H       1  ZINC000004313955    0.1300
     40 H40        -2.0449    4.0727   49.7063 H       1  ZINC000004313955    0.1300
     41 H41        -6.9202   -0.1213   51.9089 H       1  ZINC000004313955    0.1600
     42 H42        -9.2783   -0.5906   52.4256 H       1  ZINC000004313955    0.1500
     43 H43       -10.2389    3.5323   51.8797 H       1  ZINC000004313955    0.1500
     44 H44        -4.5571    2.4281   54.0744 H       1  ZINC000004313955    0.3700
     45 H45        -4.7816    4.0236   53.6624 H       1  ZINC000004313955    0.3800
     46 H46         0.5113    0.3605   49.1850 H       1  ZINC000004313955    0.0900
     47 H47         1.1729    0.0933   50.8183 H       1  ZINC000004313955    0.0800
@<TRIPOS>BOND
     1     1     2    1
     2     1    29    1
     3     1    30    1
     4     1    31    1
     5     2     3    1
     6     2    28    1
     7     2     4    1
     8     4     5    1
     9     4    32    1
    10     4    33    1
    11     5     6    1
    12     5     7    1
    13     5     8    1
    14     7    34    1
    15     7    35    1
    16     7    36    1
    17     8     9    1
    18     8    37    1
    19     8    38    1
    20     9    10   am
    21     9    28    1
    22    10    11    2
    23    10    12    1
    24    12    13    1
    25    12    39    1
    26    12    40    1
    27    13    14    1
    28    14    26    1
    29    14    15    2
    30    15    16    1
    31    16    17    2
    32    17    18    1
    33    17    26    1
    34    18    24   ar
    35    18    19   ar
    36    19    20   ar
    37    19    41    1
    38    20    21   ar
    39    20    42    1
    40    21    22    1
    41    21    23   ar
    42    23    24   ar
    43    23    43    1
    44    24    25    1
    45    26    27    1
    46    27    44    1
    47    27    45    1
    48    28    46    1
    49    28    47    1
@<TRIPOS>SUBSTRUCTURE
     1 ZINC000004313955        1 TEMP              0 ****  ****    0 ROOT


##########                                Name:    ZINC000854704989
##########                DOCK_Rotatable_Bonds:                   5
##########                         Heavy_Atoms:                  22
##########                    Molecular_Weight:             365.227
##########                DOCK_Rotatable_Bonds:                   5
##########                       Formal_Charge:        -1.78814e-07
##########                     HBond_Acceptors:                   5
##########                        HBond_Donors:                   1
##########                         Heavy_Atoms:                  22
##########                          Grid_Score:          -29.507128
##########                     Grid_vdw_energy:          -28.982630
##########                      Grid_es_energy:           -0.524497
##########           Internal_energy_repulsive:            8.325863

@<TRIPOS>MOLECULE
ZINC000854704989
 39 41 1 0 0
SMALL
USER_CHARGES


@<TRIPOS>ATOM
      1 O1        -13.2294    0.4681   48.0041 O.2     1  ZINC000854704989   -0.5300
      2 C2        -14.0724    0.2158   48.8427 C.2     1  ZINC000854704989    0.5700
      3 N3        -15.1659   -0.4964   48.5059 N.am    1  ZINC000854704989   -0.7300
      4 C4        -15.3416   -0.9613   47.1278 C.3     1  ZINC000854704989    0.2000
      5 C5        -15.3515   -2.4681   47.1034 C.2     1  ZINC000854704989   -0.0500
      6 C6        -16.1429   -3.2853   47.8378 C.2     1  ZINC000854704989   -0.1700
      7 C7        -15.7545   -4.5861   47.4392 C.2     1  ZINC000854704989    0.0000
      8 Br8       -16.4591   -6.2229   48.0718 Br      1  ZINC000854704989    0.0600
      9 N9        -14.8155   -4.4323   46.5495 N.2     1  ZINC000854704989   -0.3200
     10 O10       -14.5826   -3.2633   46.3461 O.3     1  ZINC000854704989    0.1300
     11 C11       -13.8952    0.6850   50.2335 C.ar    1  ZINC000854704989   -0.1300
     12 C12       -14.9510    1.3038   50.9043 C.ar    1  ZINC000854704989   -0.0900
     13 C13       -14.7791    1.7389   52.2023 C.ar    1  ZINC000854704989   -0.1200
     14 C14       -13.5634    1.5635   52.8386 C.ar    1  ZINC000854704989   -0.0900
     15 C15       -12.5123    0.9507   52.1791 C.ar    1  ZINC000854704989   -0.0800
     16 C16       -11.1915    0.7638   52.8802 C.3     1  ZINC000854704989   -0.0800
     17 H17       -11.3391    0.8283   53.9582 H       1  ZINC000854704989    0.0900
     18 C18       -10.2145    1.8546   52.4309 C.3     1  ZINC000854704989   -0.1100
     19 C19        -8.8537    1.6087   53.0898 C.3     1  ZINC000854704989   -0.1600
     20 C20        -8.3649    0.2046   52.7245 C.3     1  ZINC000854704989    0.0600
     21 O21        -9.3335   -0.7592   53.1425 O.3     1  ZINC000854704989   -0.3800
     22 C22       -10.6131   -0.6084   52.5242 C.3     1  ZINC000854704989    0.0700
     23 C23       -12.6728    0.5060   50.8833 C.ar    1  ZINC000854704989   -0.0500
     24 H24       -15.8367   -0.7010   49.1761 H       1  ZINC000854704989    0.4000
     25 H25       -16.2863   -0.5853   46.7352 H       1  ZINC000854704989    0.1100
     26 H26       -14.5203   -0.5934   46.5129 H       1  ZINC000854704989    0.1000
     27 H27       -16.8960   -3.0084   48.5607 H       1  ZINC000854704989    0.1900
     28 H28       -15.9004    1.4419   50.4084 H       1  ZINC000854704989    0.1200
     29 H29       -15.5954    2.2178   52.7226 H       1  ZINC000854704989    0.1300
     30 H30       -13.4337    1.9065   53.8545 H       1  ZINC000854704989    0.1300
     31 H31       -10.1058    1.8228   51.3468 H       1  ZINC000854704989    0.0700
     32 H32       -10.5943    2.8309   52.7321 H       1  ZINC000854704989    0.0700
     33 H33        -8.1371    2.3483   52.7326 H       1  ZINC000854704989    0.0800
     34 H34        -8.9532    1.6897   54.1722 H       1  ZINC000854704989    0.0700
     35 H35        -8.2270    0.1371   51.6454 H       1  ZINC000854704989    0.0500
     36 H36        -7.4169    0.0081   53.2253 H       1  ZINC000854704989    0.1000
     37 H37       -11.2834   -1.3905   52.8805 H       1  ZINC000854704989    0.1000
     38 H38       -10.5056   -0.6864   51.4424 H       1  ZINC000854704989    0.0500
     39 H39       -11.8518    0.0275   50.3698 H       1  ZINC000854704989    0.1400
@<TRIPOS>BOND
     1     1     2    2
     2     2     3   am
     3     2    11    1
     4     3     4    1
     5     3    24    1
     6     4     5    1
     7     4    25    1
     8     4    26    1
     9     5    10    1
    10     5     6    2
    11     6     7    1
    12     6    27    1
    13     7     8    1
    14     7     9    2
    15     9    10    1
    16    11    23   ar
    17    11    12   ar
    18    12    13   ar
    19    12    28    1
    20    13    14   ar
    21    13    29    1
    22    14    15   ar
    23    14    30    1
    24    15    16    1
    25    15    23   ar
    26    16    17    1
    27    16    22    1
    28    16    18    1
    29    18    19    1
    30    18    31    1
    31    18    32    1
    32    19    20    1
    33    19    33    1
    34    19    34    1
    35    20    21    1
    36    20    35    1
    37    20    36    1
    38    21    22    1
    39    22    37    1
    40    22    38    1
    41    23    39    1
@<TRIPOS>SUBSTRUCTURE
     1 ZINC000854704989        1 TEMP              0 ****  ****    0 ROOT


##########                                Name:    ZINC000919225759
##########                DOCK_Rotatable_Bonds:                   4
##########                         Heavy_Atoms:                  27
##########                    Molecular_Weight:             375.295
##########                DOCK_Rotatable_Bonds:                   4
##########                       Formal_Charge:                0.04
##########                     HBond_Acceptors:                  11
##########                        HBond_Donors:                   0
##########                         Heavy_Atoms:                  27
##########                          Grid_Score:          -29.486931
##########                     Grid_vdw_energy:          -28.789545
##########                      Grid_es_energy:           -0.697385
##########           Internal_energy_repulsive:            7.783934

@<TRIPOS>MOLECULE
ZINC000919225759
 40 41 1 0 0
SMALL
USER_CHARGES


@<TRIPOS>ATOM
      1 C1         -6.8397    3.4109   53.7118 C.3     1  ZINC000919225759   -0.1500
      2 C2         -5.5314    3.2022   54.4300 C.ar    1  ZINC000919225759    0.0900
      3 C3         -5.4834    3.2496   55.8245 C.ar    1  ZINC000919225759   -0.1200
      4 C4         -6.7141    3.5043   56.6009 C.2     1  ZINC000919225759    0.5200
      5 O5         -7.1323    4.6383   56.7218 O.2     1  ZINC000919225759   -0.4700
      6 O6         -7.3727    2.4788   57.1749 O.3     1  ZINC000919225759   -0.3400
      7 C7         -8.2227    2.7936   58.3092 C.3     1  ZINC000919225759    0.1400
      8 H8         -7.8293    3.6689   58.8262 H       1  ZINC000919225759    0.1100
      9 C9         -9.6416    3.0867   57.8175 C.3     1  ZINC000919225759   -0.1700
     10 C10        -8.2513    1.6216   59.2561 C.ar    1  ZINC000919225759   -0.1000
     11 C11        -7.7504    0.3972   58.8555 C.ar    1  ZINC000919225759   -0.0400
     12 C12        -7.7767   -0.6780   59.7242 C.ar    1  ZINC000919225759   -0.1100
     13 C13        -8.3033   -0.5285   60.9933 C.ar    1  ZINC000919225759   -0.0500
     14 C14        -8.8034    0.6965   61.3943 C.ar    1  ZINC000919225759   -0.0400
     15 N15        -9.3679    0.8564   62.7532 N.pl3   1  ZINC000919225759    0.0300
     16 O16        -9.3917   -0.0910   63.5182 O.2     1  ZINC000919225759   -0.1500
     17 O17        -9.8085    1.9356   63.1065 O.2     1  ZINC000919225759   -0.1500
     18 C18        -8.7733    1.7725   60.5273 C.ar    1  ZINC000919225759   -0.0400
     19 C19        -4.2670    3.0547   56.4821 C.ar    1  ZINC000919225759    0.0500
     20 C20        -3.1220    2.8169   55.7509 C.ar    1  ZINC000919225759   -0.0600
     21 N21        -1.8317    2.6096   56.4462 N.pl3   1  ZINC000919225759    0.0300
     22 O22        -1.7821    2.6492   57.6625 O.2     1  ZINC000919225759   -0.1300
     23 O23        -0.8196    2.3996   55.8019 O.2     1  ZINC000919225759   -0.1300
     24 C24        -3.1766    2.7713   54.3689 C.ar    1  ZINC000919225759    0.0400
     25 C25        -4.3793    2.9583   53.7113 C.ar    1  ZINC000919225759   -0.0500
     26 N26        -4.4283    2.9071   52.2328 N.pl3   1  ZINC000919225759    0.0200
     27 O27        -3.5135    3.3721   51.5767 O.2     1  ZINC000919225759   -0.1300
     28 O28        -5.3833    2.4000   51.6723 O.2     1  ZINC000919225759   -0.1200
     29 H29        -7.3929    2.4721   53.6846 H       1  ZINC000919225759    0.1200
     30 H30        -7.4270    4.1636   54.2378 H       1  ZINC000919225759    0.1200
     31 H31        -6.6454    3.7478   52.6936 H       1  ZINC000919225759    0.0900
     32 H32       -10.0350    2.2115   57.3005 H       1  ZINC000919225759    0.0700
     33 H33       -10.2797    3.3230   58.6690 H       1  ZINC000919225759    0.0900
     34 H34        -9.6209    3.9344   57.1326 H       1  ZINC000919225759    0.0700
     35 H35        -7.3390    0.2804   57.8639 H       1  ZINC000919225759    0.1500
     36 H36        -7.3859   -1.6349   59.4110 H       1  ZINC000919225759    0.1500
     37 H37        -8.3244   -1.3687   61.6716 H       1  ZINC000919225759    0.1600
     38 H38        -9.1640    2.7294   60.8405 H       1  ZINC000919225759    0.1600
     39 H39        -4.2228    3.0905   57.5605 H       1  ZINC000919225759    0.1900
     40 H40        -2.2768    2.5850   53.8012 H       1  ZINC000919225759    0.1900
@<TRIPOS>BOND
     1     1     2    1
     2     1    29    1
     3     1    30    1
     4     1    31    1
     5     2    25   ar
     6     2     3   ar
     7     3     4    1
     8     3    19   ar
     9     4     5    2
    10     4     6    1
    11     6     7    1
    12     7     8    1
    13     7     9    1
    14     7    10    1
    15     9    32    1
    16     9    33    1
    17     9    34    1
    18    10    18   ar
    19    10    11   ar
    20    11    12   ar
    21    11    35    1
    22    12    13   ar
    23    12    36    1
    24    13    14   ar
    25    13    37    1
    26    14    15    1
    27    14    18   ar
    28    15    16    2
    29    15    17    2
    30    18    38    1
    31    19    20   ar
    32    19    39    1
    33    20    21    1
    34    20    24   ar
    35    21    22    2
    36    21    23    2
    37    24    25   ar
    38    24    40    1
    39    25    26    1
    40    26    27    2
    41    26    28    2
@<TRIPOS>SUBSTRUCTURE
     1 ZINC000919225759        1 TEMP              0 ****  ****    0 ROOT


##########                                Name:    ZINC000006915700
##########                DOCK_Rotatable_Bonds:                   5
##########                         Heavy_Atoms:                  26
##########                    Molecular_Weight:             369.447
##########                DOCK_Rotatable_Bonds:                   5
##########                       Formal_Charge:        -1.04308e-07
##########                     HBond_Acceptors:                   8
##########                        HBond_Donors:                   1
##########                         Heavy_Atoms:                  26
##########                          Grid_Score:          -29.448151
##########                     Grid_vdw_energy:          -29.041355
##########                      Grid_es_energy:           -0.406795
##########           Internal_energy_repulsive:            3.076046

@<TRIPOS>MOLECULE
ZINC000006915700
 45 48 1 0 0
SMALL
USER_CHARGES


@<TRIPOS>ATOM
      1 C1         -8.6309    0.6321   52.7621 C.3     1  <0>        -0.1200
      2 C2         -9.6001    0.0547   53.7613 C.ar    1  <0>        -0.0500
      3 C3        -10.3769   -1.0368   53.4160 C.ar    1  <0>        -0.1300
      4 C4        -11.2658   -1.5703   54.3266 C.ar    1  <0>        -0.0600
      5 C5        -11.3802   -1.0066   55.5975 C.ar    1  <0>        -0.0700
      6 C6        -12.3320   -1.5747   56.5797 C.2     1  <0>         0.4400
      7 N7        -13.5937   -1.7766   56.2231 N.2     1  <0>        -0.5200
      8 C8        -14.4638   -2.2889   57.0986 C.2     1  <0>         0.3600
      9 C9        -15.8137   -2.6068   57.0209 C.2     1  <0>        -0.3200
     10 C10       -16.2020   -3.1183   58.2601 C.2     1  <0>         0.5500
     11 O11       -17.3225   -3.5021   58.5540 O.2     1  <0>        -0.5200
     12 N12       -15.1304   -3.1172   59.0768 N.am    1  <0>        -0.5000
     13 N13       -14.0370   -2.6042   58.3722 N.pl3   1  <0>        -0.3300
     14 C14       -12.7323   -2.3846   58.7081 C.2     1  <0>         0.3900
     15 S15       -12.1537   -2.7759   60.3258 S.3     1  <0>         0.1200
     16 C16       -11.7611   -1.1152   60.9293 C.3     1  <0>        -0.1500
     17 C17       -10.2788   -1.0092   61.1796 C.2     1  <0>         0.5500
     18 O18        -9.5061   -1.6968   60.5462 O.2     1  <0>        -0.5200
     19 N19        -9.8118   -0.1504   62.1073 N.am    1  <0>        -0.6100
     20 C20       -10.6331    0.7348   62.9461 C.3     1  <0>         0.0900
     21 C21        -9.6688    1.5487   63.8345 C.3     1  <0>        -0.1300
     22 C22        -8.3333    1.4844   63.0474 C.3     1  <0>        -0.1400
     23 C23        -8.3932    0.0526   62.4536 C.3     1  <0>         0.1000
     24 N24       -11.9040   -1.8799   57.8071 N.2     1  <0>        -0.5600
     25 C25       -10.5941    0.0937   55.9396 C.ar    1  <0>        -0.0500
     26 C26        -9.7052    0.6148   55.0220 C.ar    1  <0>        -0.1300
     27 H27        -7.6654    0.1366   52.8642 H       1  <0>         0.0800
     28 H28        -9.0137    0.4774   51.7533 H       1  <0>         0.0700
     29 H29        -8.5125    1.6999   52.9460 H       1  <0>         0.0700
     30 H30       -10.2877   -1.4720   52.4316 H       1  <0>         0.1300
     31 H31       -11.8720   -2.4221   54.0558 H       1  <0>         0.1300
     32 H32       -16.4489   -2.4805   56.1566 H       1  <0>         0.1800
     33 H33       -15.1192   -3.4213   59.9979 H       1  <0>         0.4400
     34 H34       -12.0573   -0.3781   60.1831 H       1  <0>         0.1400
     35 H35       -12.3006   -0.9292   61.8580 H       1  <0>         0.1400
     36 H36       -11.2144    1.4081   62.3162 H       1  <0>         0.0800
     37 H37       -11.2998    0.1401   63.5707 H       1  <0>         0.0800
     38 H38       -10.0104    2.5793   63.9309 H       1  <0>         0.0900
     39 H39        -9.5617    1.0835   64.8144 H       1  <0>         0.0800
     40 H40        -8.3076    2.2370   62.2593 H       1  <0>         0.0800
     41 H41        -7.4797    1.5926   63.7166 H       1  <0>         0.0900
     42 H42        -8.0697   -0.6790   63.1941 H       1  <0>         0.0800
     43 H43        -7.7746   -0.0133   61.5586 H       1  <0>         0.0800
     44 H44       -10.6783    0.5345   56.9220 H       1  <0>         0.1400
     45 H45        -9.0958    1.4666   55.2858 H       1  <0>         0.1300
@<TRIPOS>BOND
     1     1     2    1
     2     1    27    1
     3     1    28    1
     4     1    29    1
     5     2    26   ar
     6     2     3   ar
     7     3     4   ar
     8     3    30    1
     9     4     5   ar
    10     4    31    1
    11     5     6    1
    12     5    25   ar
    13     6    24    1
    14     6     7    2
    15     7     8    1
    16     8    13    1
    17     8     9    2
    18     9    10    1
    19     9    32    1
    20    10    11    2
    21    10    12   am
    22    12    13    1
    23    12    33    1
    24    13    14    1
    25    14    15    1
    26    14    24    2
    27    15    16    1
    28    16    17    1
    29    16    34    1
    30    16    35    1
    31    17    18    2
    32    17    19   am
    33    19    23    1
    34    19    20    1
    35    20    21    1
    36    20    36    1
    37    20    37    1
    38    21    22    1
    39    21    38    1
    40    21    39    1
    41    22    23    1
    42    22    40    1
    43    22    41    1
    44    23    42    1
    45    23    43    1
    46    25    26   ar
    47    25    44    1
    48    26    45    1
@<TRIPOS>SUBSTRUCTURE
     1 <0>         1 TEMP              0 ****  ****    0 ROOT


##########                                Name:    ZINC001220212140
##########                DOCK_Rotatable_Bonds:                   6
##########                         Heavy_Atoms:                  28
##########                    Molecular_Weight:             379.459
##########                DOCK_Rotatable_Bonds:                   6
##########                       Formal_Charge:         -0.00999925
##########                     HBond_Acceptors:                   6
##########                        HBond_Donors:                   1
##########                         Heavy_Atoms:                  28
##########                          Grid_Score:          -29.440830
##########                     Grid_vdw_energy:          -27.929903
##########                      Grid_es_energy:           -1.510926
##########           Internal_energy_repulsive:           12.740512

@<TRIPOS>MOLECULE
ZINC001220212140
 53 56 1 0 0
SMALL
USER_CHARGES


@<TRIPOS>ATOM
      1 C1        -11.6468   -0.2971   52.4921 C.3     1  ZINC001220212140   -0.1700
      2 C2        -11.1162    0.6700   53.5523 C.3     1  ZINC001220212140    0.0800
      3 H3        -11.7258    0.6235   54.4547 H       1  ZINC001220212140    0.1200
      4 C4         -9.6339    0.3686   53.8763 C.3     1  ZINC001220212140   -0.1100
      5 C5         -8.9090    1.3030   52.9268 C.ar    1  ZINC001220212140   -0.1500
      6 C6         -7.6012    1.3531   52.5004 C.ar    1  ZINC001220212140   -0.0700
      7 C7         -7.2025    2.3342   51.6007 C.ar    1  ZINC001220212140    0.1400
      8 N8         -5.8724    2.3900   51.1625 N.am    1  ZINC001220212140   -0.6800
      9 C9         -5.0689    3.3909   51.5735 C.2     1  ZINC001220212140    0.7200
     10 O10        -5.4979    4.2456   52.3244 O.2     1  ZINC001220212140   -0.5700
     11 N11        -3.7898    3.4446   51.1521 N.am    1  ZINC001220212140   -0.6300
     12 C12        -2.8088    4.4759   51.5206 C.3     1  ZINC001220212140    0.0900
     13 C13        -1.4795    4.1129   50.8259 C.3     1  ZINC001220212140   -0.1100
     14 C14        -1.6298    2.5914   50.5614 C.3     1  ZINC001220212140   -0.1300
     15 H15        -1.3714    2.0132   51.4485 H       1  ZINC001220212140    0.1200
     16 C16        -0.7975    2.1636   49.3801 C.2     1  ZINC001220212140    0.5300
     17 O17        -1.3063    2.0666   48.2833 O.2     1  ZINC001220212140   -0.5100
     18 N18         0.5119    1.8890   49.5423 N.am    1  ZINC001220212140   -0.5700
     19 C19         1.1262    2.0063   50.8671 C.3     1  ZINC001220212140    0.0700
     20 C20         1.2845    1.4918   48.4455 C.ar    1  ZINC001220212140    0.1400
     21 C21         1.4378    2.3418   47.3580 C.ar    1  ZINC001220212140   -0.1100
     22 C22         2.2011    1.9468   46.2768 C.ar    1  ZINC001220212140   -0.1100
     23 C23         2.8120    0.7063   46.2763 C.ar    1  ZINC001220212140   -0.1200
     24 C24         2.6609   -0.1426   47.3574 C.ar    1  ZINC001220212140   -0.1100
     25 C25         1.9044    0.2491   48.4444 C.ar    1  ZINC001220212140   -0.1200
     26 C26        -3.1407    2.4755   50.2505 C.3     1  ZINC001220212140    0.1400
     27 C27        -8.1292    3.2583   51.1381 C.ar    1  ZINC001220212140   -0.1100
     28 C28        -9.4378    3.2069   51.5706 C.ar    1  ZINC001220212140   -0.1200
     29 C29        -9.8417    2.2280   52.4747 C.ar    1  ZINC001220212140    0.0900
     30 O30       -11.0677    2.0120   53.0390 O.3     1  ZINC001220212140   -0.3000
     31 H31       -11.0316   -0.2260   51.5950 H       1  ZINC001220212140    0.0600
     32 H32       -11.6096   -1.3157   52.8782 H       1  ZINC001220212140    0.0800
     33 H33       -12.6770   -0.0386   52.2475 H       1  ZINC001220212140    0.0700
     34 H34        -9.4045    0.6125   54.9136 H       1  ZINC001220212140    0.0900
     35 H35        -9.3915   -0.6717   53.6595 H       1  ZINC001220212140    0.0900
     36 H36        -6.8857    0.6305   52.8644 H       1  ZINC001220212140    0.1400
     37 H37        -5.5301    1.7082   50.5635 H       1  ZINC001220212140    0.4100
     38 H38        -3.1514    5.4525   51.1783 H       1  ZINC001220212140    0.0700
     39 H39        -2.6712    4.4871   52.6018 H       1  ZINC001220212140    0.0700
     40 H40        -1.3726    4.6586   49.8885 H       1  ZINC001220212140    0.1000
     41 H41        -0.6339    4.3079   51.4855 H       1  ZINC001220212140    0.0900
     42 H42         1.0485    1.0527   51.3893 H       1  ZINC001220212140    0.0700
     43 H43         2.1766    2.2760   50.7579 H       1  ZINC001220212140    0.0800
     44 H44         0.6107    2.7772   51.4398 H       1  ZINC001220212140    0.0800
     45 H45         0.9604    3.3106   47.3576 H       1  ZINC001220212140    0.1200
     46 H46         2.3207    2.6075   45.4309 H       1  ZINC001220212140    0.1300
     47 H47         3.4080    0.3996   45.4295 H       1  ZINC001220212140    0.1300
     48 H48         3.1388   -1.1111   47.3535 H       1  ZINC001220212140    0.1300
     49 H49         1.7868   -0.4143   49.2884 H       1  ZINC001220212140    0.1200
     50 H50        -3.4939    1.4651   50.4564 H       1  ZINC001220212140    0.0900
     51 H51        -3.3358    2.7421   49.2118 H       1  ZINC001220212140    0.0700
     52 H52        -7.8241    4.0210   50.4370 H       1  ZINC001220212140    0.1300
     53 H53       -10.1529    3.9295   51.2060 H       1  ZINC001220212140    0.1300
@<TRIPOS>BOND
     1     1     2    1
     2     1    31    1
     3     1    32    1
     4     1    33    1
     5     2     3    1
     6     2    30    1
     7     2     4    1
     8     4     5    1
     9     4    34    1
    10     4    35    1
    11     5    29   ar
    12     5     6   ar
    13     6     7   ar
    14     6    36    1
    15     7     8    1
    16     7    27   ar
    17     8     9   am
    18     8    37    1
    19     9    10    2
    20     9    11   am
    21    11    26    1
    22    11    12    1
    23    12    13    1
    24    12    38    1
    25    12    39    1
    26    13    14    1
    27    13    40    1
    28    13    41    1
    29    14    15    1
    30    14    16    1
    31    14    26    1
    32    16    17    2
    33    16    18   am
    34    18    19    1
    35    18    20    1
    36    19    42    1
    37    19    43    1
    38    19    44    1
    39    20    25   ar
    40    20    21   ar
    41    21    22   ar
    42    21    45    1
    43    22    23   ar
    44    22    46    1
    45    23    24   ar
    46    23    47    1
    47    24    25   ar
    48    24    48    1
    49    25    49    1
    50    26    50    1
    51    26    51    1
    52    27    28   ar
    53    27    52    1
    54    28    29   ar
    55    28    53    1
    56    29    30    1
@<TRIPOS>SUBSTRUCTURE
     1 ZINC001220212140        1 TEMP              0 ****  ****    0 ROOT


##########                                Name:    ZINC000058043838
##########                DOCK_Rotatable_Bonds:                   8
##########                         Heavy_Atoms:                  29
##########                    Molecular_Weight:             412.469
##########                DOCK_Rotatable_Bonds:                   8
##########                       Formal_Charge:           0.0200001
##########                     HBond_Acceptors:                   9
##########                        HBond_Donors:                   0
##########                         Heavy_Atoms:                  29
##########                          Grid_Score:          -29.437401
##########                     Grid_vdw_energy:          -29.057095
##########                      Grid_es_energy:           -0.380305
##########           Internal_energy_repulsive:            9.723830

@<TRIPOS>MOLECULE
ZINC000058043838
 49 51 1 0 0
SMALL
USER_CHARGES


@<TRIPOS>ATOM
      1 C1         -8.2382   -1.3770   59.7014 C.3     1  ZINC000058043838    0.0300
      2 O2         -8.9625   -0.4963   58.8402 O.3     1  ZINC000058043838   -0.3800
      3 C3         -8.3683    0.7954   58.6969 C.3     1  ZINC000058043838    0.0300
      4 C4         -9.4587    1.8294   58.4095 C.3     1  ZINC000058043838    0.1000
      5 N5        -10.0503    1.5631   57.0960 N.am    1  ZINC000058043838   -0.5200
      6 C6         -9.3130    1.7254   55.9795 C.2     1  ZINC000058043838    0.5100
      7 O7         -8.1602    2.0933   56.0622 O.2     1  ZINC000058043838   -0.4500
      8 C8         -9.9209    1.4499   54.6283 C.3     1  ZINC000058043838   -0.0900
      9 C9         -8.8543    1.5478   53.5683 C.ar    1  ZINC000058043838   -0.1400
     10 C10        -8.3475    0.4020   52.9747 C.ar    1  ZINC000058043838   -0.0500
     11 C11        -7.3672    0.5402   52.0036 C.ar    1  ZINC000058043838   -0.1700
     12 C12        -6.9313    1.8063   51.6621 C.ar    1  ZINC000058043838    0.1300
     13 C13        -5.8669    1.9683   50.6077 C.3     1  ZINC000058043838   -0.1100
     14 N14        -7.4363    2.8745   52.2480 N.ar    1  ZINC000058043838   -0.4800
     15 C15        -8.3730    2.7813   53.1714 C.ar    1  ZINC000058043838    0.1200
     16 C16       -11.3714    1.1434   57.0011 C.2     1  ZINC000058043838    0.3100
     17 N17       -11.7597   -0.0878   56.8803 N.2     1  ZINC000058043838   -0.4700
     18 C18       -13.0657   -0.3024   56.8042 C.2     1  ZINC000058043838    0.1100
     19 C19       -13.6386   -1.6634   56.6647 C.ar    1  ZINC000058043838    0.0400
     20 C20       -14.1867   -2.3084   57.7721 C.ar    1  ZINC000058043838   -0.0800
     21 C21       -14.7188   -3.5745   57.6363 C.ar    1  ZINC000058043838   -0.0500
     22 C22       -14.7089   -4.2033   56.4042 C.ar    1  ZINC000058043838   -0.0400
     23 N23       -15.2812   -5.5615   56.2649 N.pl3   1  ZINC000058043838    0.0300
     24 O24       -15.7595   -6.1231   57.2340 O.2     1  ZINC000058043838   -0.1600
     25 O25       -15.2737   -6.1172   55.1811 O.2     1  ZINC000058043838   -0.1600
     26 C26       -14.1667   -3.5677   55.3017 C.ar    1  ZINC000058043838   -0.0500
     27 C27       -13.6361   -2.2997   55.4246 C.ar    1  ZINC000058043838   -0.1100
     28 C28       -13.8353    0.7992   56.8624 C.2     1  ZINC000058043838   -0.2600
     29 S29       -12.7800    2.2000   57.0338 S.3     1  ZINC000058043838    0.1500
     30 H30        -7.2336   -1.5273   59.3058 H       1  ZINC000058043838    0.0500
     31 H31        -8.1745   -0.9399   60.6979 H       1  ZINC000058043838    0.0400
     32 H32        -8.7537   -2.3358   59.7575 H       1  ZINC000058043838    0.0900
     33 H33        -7.8495    1.0608   59.6179 H       1  ZINC000058043838    0.0600
     34 H34        -7.6570    0.7784   57.8710 H       1  ZINC000058043838    0.0800
     35 H35       -10.2313    1.7652   59.1757 H       1  ZINC000058043838    0.1200
     36 H36        -9.0228    2.8284   58.4159 H       1  ZINC000058043838    0.1000
     37 H37       -10.3500    0.4480   54.6205 H       1  ZINC000058043838    0.1100
     38 H38       -10.7028    2.1817   54.4257 H       1  ZINC000058043838    0.1100
     39 H39        -8.7072   -0.5748   53.2621 H       1  ZINC000058043838    0.1300
     40 H40        -6.9495   -0.3307   51.5204 H       1  ZINC000058043838    0.1400
     41 H41        -6.3366    2.0620   49.6286 H       1  ZINC000058043838    0.0800
     42 H42        -5.2815    2.8637   50.8170 H       1  ZINC000058043838    0.0800
     43 H43        -5.2126    1.0965   50.6149 H       1  ZINC000058043838    0.0800
     44 H44        -8.7625    3.6786   53.6291 H       1  ZINC000058043838    0.1500
     45 H45       -14.1946   -1.8186   58.7346 H       1  ZINC000058043838    0.1600
     46 H46       -15.1434   -4.0755   58.4937 H       1  ZINC000058043838    0.1600
     47 H47       -14.1616   -4.0634   54.3421 H       1  ZINC000058043838    0.1600
     48 H48       -13.2134   -1.8042   54.5631 H       1  ZINC000058043838    0.1500
     49 H49       -14.9140    0.8211   56.8158 H       1  ZINC000058043838    0.1800
@<TRIPOS>BOND
     1     1     2    1
     2     1    30    1
     3     1    31    1
     4     1    32    1
     5     2     3    1
     6     3     4    1
     7     3    33    1
     8     3    34    1
     9     4     5    1
    10     4    35    1
    11     4    36    1
    12     5     6   am
    13     5    16    1
    14     6     7    2
    15     6     8    1
    16     8     9    1
    17     8    37    1
    18     8    38    1
    19     9    15   ar
    20     9    10   ar
    21    10    11   ar
    22    10    39    1
    23    11    12   ar
    24    11    40    1
    25    12    13    1
    26    12    14   ar
    27    13    41    1
    28    13    42    1
    29    13    43    1
    30    14    15   ar
    31    15    44    1
    32    16    29    1
    33    16    17    2
    34    17    18    1
    35    18    19    1
    36    18    28    2
    37    19    27   ar
    38    19    20   ar
    39    20    21   ar
    40    20    45    1
    41    21    22   ar
    42    21    46    1
    43    22    23    1
    44    22    26   ar
    45    23    24    2
    46    23    25    2
    47    26    27   ar
    48    26    47    1
    49    27    48    1
    50    28    29    1
    51    28    49    1
@<TRIPOS>SUBSTRUCTURE
     1 ZINC000058043838        1 TEMP              0 ****  ****    0 ROOT


##########                                Name:    ZINC000991934963
##########                DOCK_Rotatable_Bonds:                   8
##########                         Heavy_Atoms:                  27
##########                    Molecular_Weight:             370.495
##########                DOCK_Rotatable_Bonds:                   8
##########                       Formal_Charge:          -0.0499997
##########                     HBond_Acceptors:                   6
##########                        HBond_Donors:                   1
##########                         Heavy_Atoms:                  27
##########                          Grid_Score:          -29.428753
##########                     Grid_vdw_energy:          -30.193972
##########                      Grid_es_energy:            0.765218
##########           Internal_energy_repulsive:           11.731886

@<TRIPOS>MOLECULE
ZINC000991934963
 57 61 1 0 0
SMALL
USER_CHARGES


@<TRIPOS>ATOM
      1 C1         -3.4374    2.9460   56.2426 C.3     1  ZINC000991934963    0.0400
      2 O2         -4.5685    3.3364   55.4613 O.3     1  ZINC000991934963   -0.2900
      3 C3         -4.5547    3.0010   54.1490 C.ar    1  ZINC000991934963    0.5000
      4 N4         -3.3932    2.8475   53.5343 N.ar    1  ZINC000991934963   -0.5700
      5 C5         -3.3436    2.5203   52.2533 C.ar    1  ZINC000991934963    0.1900
      6 C6         -4.5273    2.3383   51.5562 C.ar    1  ZINC000991934963   -0.2700
      7 C7         -5.7259    2.5072   52.2317 C.ar    1  ZINC000991934963    0.2200
      8 C8         -7.0383    2.3200   51.5152 C.3     1  ZINC000991934963    0.1000
      9 N9         -8.0044    1.6843   52.4211 N.3     1  ZINC000991934963   -0.4900
     10 C10        -7.9217    0.1920   52.3323 C.3     1  ZINC000991934963    0.0400
     11 C11        -9.3733   -0.3179   52.0689 C.3     1  ZINC000991934963   -0.1400
     12 C12       -10.2017    0.8348   52.6325 C.3     1  ZINC000991934963    0.1700
     13 N13       -10.2563    0.8180   54.0964 N.am    1  ZINC000991934963   -0.7000
     14 C14       -10.9386   -0.1537   54.7342 C.2     1  ZINC000991934963    0.5200
     15 O15       -11.5085   -1.0134   54.0962 O.2     1  ZINC000991934963   -0.5300
     16 C16       -10.9933   -0.1720   56.2401 C.3     1  ZINC000991934963   -0.1100
     17 C17       -11.6464   -1.4730   56.7110 C.3     1  ZINC000991934963   -0.1300
     18 H18       -11.1094   -2.3872   56.4574 H       1  ZINC000991934963    0.1200
     19 C19       -13.1752   -1.5321   56.7234 C.3     1  ZINC000991934963   -0.1700
     20 C20       -12.4016   -1.4433   58.0412 C.3     1  ZINC000991934963   -0.1200
     21 H21       -12.4336   -0.4969   58.5808 H       1  ZINC000991934963    0.1000
     22 C22       -12.3463   -2.6989   58.9139 C.3     1  ZINC000991934963   -0.1200
     23 C23       -10.9911   -3.3915   59.0701 C.3     1  ZINC000991934963   -0.1800
     24 C24       -11.5876   -2.6052   60.2391 C.3     1  ZINC000991934963   -0.1800
     25 C25       -11.5426    1.1833   51.9955 C.3     1  ZINC000991934963   -0.1200
     26 C26       -11.6344    2.7236   52.2285 C.3     1  ZINC000991934963   -0.1200
     27 C27       -10.1635    3.2249   52.3521 C.3     1  ZINC000991934963   -0.1000
     28 C28        -9.3397    2.0171   52.0578 C.3     1  ZINC000991934963    0.0500
     29 H29        -9.3954    1.8712   50.9790 H       1  ZINC000991934963    0.0400
     30 N30        -5.7032    2.8296   53.5144 N.ar    1  ZINC000991934963   -0.5000
     31 H31        -2.5371    3.4040   55.8328 H       1  ZINC000991934963    0.0600
     32 H32        -3.5760    3.2754   57.2725 H       1  ZINC000991934963    0.1100
     33 H33        -3.3363    1.8610   56.2187 H       1  ZINC000991934963    0.0600
     34 H34        -2.3923    2.3968   51.7569 H       1  ZINC000991934963    0.1700
     35 H35        -4.5163    2.0713   50.5098 H       1  ZINC000991934963    0.1500
     36 H36        -7.4211    3.2903   51.1985 H       1  ZINC000991934963    0.1000
     37 H37        -6.8881    1.6859   50.6414 H       1  ZINC000991934963    0.0600
     38 H38        -7.2686   -0.0977   51.5091 H       1  ZINC000991934963    0.0600
     39 H39        -7.5460   -0.2179   53.2700 H       1  ZINC000991934963    0.0800
     40 H40        -9.5558   -0.4464   51.0020 H       1  ZINC000991934963    0.0800
     41 H41        -9.5683   -1.2426   52.6121 H       1  ZINC000991934963    0.0900
     42 H42        -9.8016    1.5063   54.6067 H       1  ZINC000991934963    0.4000
     43 H43        -9.9819   -0.1073   56.6412 H       1  ZINC000991934963    0.1000
     44 H44       -11.5791    0.6768   56.5927 H       1  ZINC000991934963    0.0900
     45 H45       -13.7157   -0.6440   56.3960 H       1  ZINC000991934963    0.0900
     46 H46       -13.6440   -2.4851   56.4782 H       1  ZINC000991934963    0.1000
     47 H47       -13.2344   -3.3303   58.8859 H       1  ZINC000991934963    0.1000
     48 H48       -10.9873   -4.4790   59.1448 H       1  ZINC000991934963    0.0900
     49 H49       -10.1389   -2.9527   58.5512 H       1  ZINC000991934963    0.0900
     50 H50       -11.1278   -1.6491   60.4894 H       1  ZINC000991934963    0.0900
     51 H51       -11.9762   -3.1753   61.0830 H       1  ZINC000991934963    0.0900
     52 H52       -11.5371    0.9523   50.9303 H       1  ZINC000991934963    0.0800
     53 H53       -12.3580    0.6658   52.5010 H       1  ZINC000991934963    0.0800
     54 H54       -12.1249    3.2033   51.3815 H       1  ZINC000991934963    0.0700
     55 H55       -12.1812    2.9327   53.1479 H       1  ZINC000991934963    0.0700
     56 H56        -9.9651    4.0092   51.6217 H       1  ZINC000991934963    0.0700
     57 H57        -9.9665    3.5841   53.3621 H       1  ZINC000991934963    0.0700
@<TRIPOS>BOND
     1     1     2    1
     2     1    31    1
     3     1    32    1
     4     1    33    1
     5     2     3    1
     6     3    30   ar
     7     3     4   ar
     8     4     5   ar
     9     5     6   ar
    10     5    34    1
    11     6     7   ar
    12     6    35    1
    13     7     8    1
    14     7    30   ar
    15     8     9    1
    16     8    36    1
    17     8    37    1
    18     9    28    1
    19     9    10    1
    20    10    11    1
    21    10    38    1
    22    10    39    1
    23    11    12    1
    24    11    40    1
    25    11    41    1
    26    12    28    1
    27    12    13    1
    28    12    25    1
    29    13    14   am
    30    13    42    1
    31    14    15    2
    32    14    16    1
    33    16    17    1
    34    16    43    1
    35    16    44    1
    36    17    18    1
    37    17    20    1
    38    17    19    1
    39    19    20    1
    40    19    45    1
    41    19    46    1
    42    20    21    1
    43    20    22    1
    44    22    24    1
    45    22    23    1
    46    22    47    1
    47    23    24    1
    48    23    48    1
    49    23    49    1
    50    24    50    1
    51    24    51    1
    52    25    26    1
    53    25    52    1
    54    25    53    1
    55    26    27    1
    56    26    54    1
    57    26    55    1
    58    27    28    1
    59    27    56    1
    60    27    57    1
    61    28    29    1
@<TRIPOS>SUBSTRUCTURE
     1 ZINC000991934963        1 TEMP              0 ****  ****    0 ROOT


##########                                Name:    ZINC000498646479
##########                DOCK_Rotatable_Bonds:                   7
##########                         Heavy_Atoms:                  29
##########                    Molecular_Weight:              407.58
##########                DOCK_Rotatable_Bonds:                   7
##########                       Formal_Charge:          -0.0199997
##########                     HBond_Acceptors:                   5
##########                        HBond_Donors:                   0
##########                         Heavy_Atoms:                  29
##########                          Grid_Score:          -29.406610
##########                     Grid_vdw_energy:          -28.865808
##########                      Grid_es_energy:           -0.540801
##########           Internal_energy_repulsive:           23.192806

@<TRIPOS>MOLECULE
ZINC000498646479
 58 61 1 0 0
SMALL
USER_CHARGES


@<TRIPOS>ATOM
      1 C1         -5.7772    1.2369   50.9364 C.3     1  ZINC000498646479   -0.1500
      2 C2         -6.4369    2.2226   51.9028 C.3     1  ZINC000498646479   -0.0600
      3 C3         -7.7938    1.7024   52.3023 C.2     1  ZINC000498646479   -0.1700
      4 C4         -8.8930    2.4458   52.4372 C.2     1  ZINC000498646479   -0.1400
      5 C5        -10.0272    1.7469   52.8133 C.2     1  ZINC000498646479   -0.1300
      6 C6         -9.8489    0.4359   52.9836 C.2     1  ZINC000498646479   -0.1900
      7 C7        -10.9219   -0.5412   53.3896 C.3     1  ZINC000498646479    0.1300
      8 N8        -10.7457   -0.9030   54.8024 N.3     1  ZINC000498646479   -0.5300
      9 C9        -11.5832   -2.0560   55.1590 C.3     1  ZINC000498646479    0.0400
     10 C10       -11.2384   -2.5136   56.5802 C.3     1  ZINC000498646479    0.1200
     11 N11       -11.3530   -1.3586   57.4836 N.am    1  ZINC000498646479   -0.6100
     12 C12       -12.0822   -1.4346   58.6145 C.2     1  ZINC000498646479    0.5200
     13 O13       -12.6548   -2.4653   58.8987 O.2     1  ZINC000498646479   -0.5400
     14 C14       -12.1861   -0.2390   59.5259 C.3     1  ZINC000498646479   -0.1000
     15 H15       -11.2419    0.3055   59.5201 H       1  ZINC000498646479    0.0900
     16 C16       -13.3075    0.6796   59.0363 C.3     1  ZINC000498646479   -0.1500
     17 C17       -12.4958   -0.7078   60.9490 C.3     1  ZINC000498646479   -0.0600
     18 C18       -12.0633    0.3498   61.9315 C.ar    1  ZINC000498646479   -0.1200
     19 C19       -10.7180    0.4523   62.3293 C.ar    1  ZINC000498646479   -0.0200
     20 C20        -9.7257   -0.4095   61.8403 C.ar    1  ZINC000498646479   -0.1200
     21 C21        -8.4397   -0.2597   62.2634 C.ar    1  ZINC000498646479   -0.1000
     22 C22        -8.0949    0.7365   63.1753 C.ar    1  ZINC000498646479   -0.1200
     23 C23        -9.0321    1.5910   63.6710 C.ar    1  ZINC000498646479   -0.0900
     24 C24       -10.3681    1.4675   63.2576 C.ar    1  ZINC000498646479   -0.1100
     25 C25       -11.3775    2.3193   63.7336 C.ar    1  ZINC000498646479    0.1400
     26 N26       -12.6130    2.1655   63.3176 N.ar    1  ZINC000498646479   -0.4800
     27 C27       -12.9661    1.2293   62.4478 C.ar    1  ZINC000498646479    0.0800
     28 C28       -10.6505   -0.1185   57.1203 C.3     1  ZINC000498646479    0.1100
     29 C29       -11.0184    0.2447   55.6778 C.3     1  ZINC000498646479    0.0400
     30 S30        -8.1717    0.0211   52.6542 S.3     1  ZINC000498646479    0.1300
     31 H31        -4.7957    1.6130   50.6475 H       1  ZINC000498646479    0.0600
     32 H32        -5.6658    0.2687   51.4248 H       1  ZINC000498646479    0.0600
     33 H33        -6.3997    1.1265   50.0486 H       1  ZINC000498646479    0.0600
     34 H34        -5.8143    2.3329   52.7906 H       1  ZINC000498646479    0.0800
     35 H35        -6.5482    3.1907   51.4145 H       1  ZINC000498646479    0.0700
     36 H36        -8.8978    3.5121   52.2665 H       1  ZINC000498646479    0.1400
     37 H37       -10.9839    2.2267   52.9582 H       1  ZINC000498646479    0.1300
     38 H38       -11.9014   -0.0833   53.2513 H       1  ZINC000498646479    0.0900
     39 H39       -10.8494   -1.4373   52.7733 H       1  ZINC000498646479    0.0500
     40 H40       -12.6340   -1.7701   55.1138 H       1  ZINC000498646479    0.0400
     41 H41       -11.3972   -2.8709   54.4593 H       1  ZINC000498646479    0.1000
     42 H42       -11.9332   -3.2932   56.8925 H       1  ZINC000498646479    0.1000
     43 H43       -10.2184   -2.8972   56.6040 H       1  ZINC000498646479    0.0800
     44 H44       -13.3279    1.5840   59.6443 H       1  ZINC000498646479    0.0700
     45 H45       -13.1299    0.9461   57.9943 H       1  ZINC000498646479    0.0600
     46 H46       -14.2635    0.1631   59.1213 H       1  ZINC000498646479    0.0700
     47 H47       -13.5673   -0.8808   61.0495 H       1  ZINC000498646479    0.0900
     48 H48       -11.9576   -1.6338   61.1516 H       1  ZINC000498646479    0.0800
     49 H49        -9.9792   -1.1862   61.1339 H       1  ZINC000498646479    0.1400
     50 H50        -7.6753   -0.9232   61.8869 H       1  ZINC000498646479    0.1300
     51 H51        -7.0676    0.8321   63.4942 H       1  ZINC000498646479    0.1300
     52 H52        -8.7498    2.3579   64.3769 H       1  ZINC000498646479    0.1300
     53 H53       -11.1380    3.0995   64.4410 H       1  ZINC000498646479    0.1600
     54 H54       -14.0007    1.1566   62.1464 H       1  ZINC000498646479    0.1500
     55 H55       -10.9566    0.6853   57.7898 H       1  ZINC000498646479    0.0900
     56 H56        -9.5740   -0.2720   57.1961 H       1  ZINC000498646479    0.0800
     57 H57       -10.4228    1.0984   55.3545 H       1  ZINC000498646479    0.0900
     58 H58       -12.0772    0.4986   55.6255 H       1  ZINC000498646479    0.0400
@<TRIPOS>BOND
     1     1     2    1
     2     1    31    1
     3     1    32    1
     4     1    33    1
     5     2     3    1
     6     2    34    1
     7     2    35    1
     8     3    30    1
     9     3     4    2
    10     4     5    1
    11     4    36    1
    12     5     6    2
    13     5    37    1
    14     6     7    1
    15     6    30    1
    16     7     8    1
    17     7    38    1
    18     7    39    1
    19     8    29    1
    20     8     9    1
    21     9    10    1
    22     9    40    1
    23     9    41    1
    24    10    11    1
    25    10    42    1
    26    10    43    1
    27    11    12   am
    28    11    28    1
    29    12    13    2
    30    12    14    1
    31    14    15    1
    32    14    16    1
    33    14    17    1
    34    16    44    1
    35    16    45    1
    36    16    46    1
    37    17    18    1
    38    17    47    1
    39    17    48    1
    40    18    27   ar
    41    18    19   ar
    42    19    24   ar
    43    19    20   ar
    44    20    21   ar
    45    20    49    1
    46    21    22   ar
    47    21    50    1
    48    22    23   ar
    49    22    51    1
    50    23    24   ar
    51    23    52    1
    52    24    25   ar
    53    25    26   ar
    54    25    53    1
    55    26    27   ar
    56    27    54    1
    57    28    29    1
    58    28    55    1
    59    28    56    1
    60    29    57    1
    61    29    58    1
@<TRIPOS>SUBSTRUCTURE
     1 ZINC000498646479        1 TEMP              0 ****  ****    0 ROOT


##########                                Name:    ZINC000583220082
##########                DOCK_Rotatable_Bonds:                   9
##########                         Heavy_Atoms:                  29
##########                    Molecular_Weight:             417.492
##########                DOCK_Rotatable_Bonds:                   9
##########                       Formal_Charge:          -0.0400006
##########                     HBond_Acceptors:                  11
##########                        HBond_Donors:                   3
##########                         Heavy_Atoms:                  29
##########                          Grid_Score:          -29.406025
##########                     Grid_vdw_energy:          -29.824879
##########                      Grid_es_energy:            0.418853
##########           Internal_energy_repulsive:           17.843990

@<TRIPOS>MOLECULE
ZINC000583220082
 52 54 1 0 0
SMALL
USER_CHARGES


@<TRIPOS>ATOM
      1 C1          4.5224    0.3199   49.8017 C.3     1  ZINC000583220082    0.0800
      2 N2          4.0069    1.4470   49.0207 N.am    1  ZINC000583220082   -0.6300
      3 C3          4.6910    1.8617   47.7935 C.3     1  ZINC000583220082    0.0800
      4 C4          2.9031    2.1024   49.4313 C.2     1  ZINC000583220082    0.5100
      5 O5          2.4753    3.0346   48.7839 O.2     1  ZINC000583220082   -0.5300
      6 C6          2.2003    1.6769   50.6946 C.3     1  ZINC000583220082   -0.1000
      7 C7          0.8106    2.2592   50.7169 C.ar    1  ZINC000583220082   -0.0800
      8 C8         -0.1567    1.7690   49.8587 C.ar    1  ZINC000583220082   -0.0800
      9 C9         -1.4312    2.3002   49.8765 C.ar    1  ZINC000583220082   -0.1400
     10 C10        -1.7414    3.3279   50.7584 C.ar    1  ZINC000583220082    0.1400
     11 N11        -3.0301    3.8675   50.7794 N.am    1  ZINC000583220082   -0.6400
     12 C12        -3.9000    3.4975   51.7400 C.2     1  ZINC000583220082    0.5100
     13 O13        -3.5640    2.6956   52.5869 O.2     1  ZINC000583220082   -0.4900
     14 C14        -5.2776    4.0743   51.7625 C.2     1  ZINC000583220082    0.5100
     15 O15        -5.4460    5.2307   52.0899 O.2     1  ZINC000583220082   -0.5100
     16 N16        -6.3336    3.3105   51.4190 N.am    1  ZINC000583220082   -0.5800
     17 C17        -6.1524    1.9052   51.0249 C.3     1  ZINC000583220082    0.0600
     18 C18        -7.1120    1.0408   51.8496 C.3     1  ZINC000583220082    0.0300
     19 N19        -8.4798    1.5559   51.7021 N.3     1  ZINC000583220082   -0.4300
     20 C20        -9.3953    0.7091   52.2992 C.2     1  ZINC000583220082    0.2900
     21 N21        -9.4997    0.4176   53.5786 N.2     1  ZINC000583220082   -0.5700
     22 C22       -10.4563   -0.4210   53.9198 C.2     1  ZINC000583220082    0.5400
     23 N23       -10.6496   -0.7930   55.2495 N.pl3   1  ZINC000583220082   -0.8200
     24 N24       -11.2177   -0.8918   52.9683 N.2     1  ZINC000583220082   -0.5500
     25 S25       -10.6503   -0.1862   51.5304 S.3     1  ZINC000583220082    0.2000
     26 C26        -8.5965    2.9190   52.2373 C.3     1  ZINC000583220082    0.0500
     27 C27        -7.6983    3.8587   51.4342 C.3     1  ZINC000583220082    0.1100
     28 C28        -0.7674    3.8178   51.6195 C.ar    1  ZINC000583220082   -0.1200
     29 C29         0.5038    3.2786   51.5996 C.ar    1  ZINC000583220082   -0.0800
     30 H30         5.2361    0.6856   50.5400 H       1  ZINC000583220082    0.0500
     31 H31         3.6967   -0.1779   50.3101 H       1  ZINC000583220082    0.0800
     32 H32         5.0182   -0.3868   49.1361 H       1  ZINC000583220082    0.0700
     33 H33         5.5555    1.2195   47.6246 H       1  ZINC000583220082    0.0800
     34 H34         4.0061    1.7783   46.9497 H       1  ZINC000583220082    0.0600
     35 H35         5.0207    2.8959   47.8930 H       1  ZINC000583220082    0.0600
     36 H36         2.1390    0.5892   50.7275 H       1  ZINC000583220082    0.1000
     37 H37         2.7585    2.0357   51.5594 H       1  ZINC000583220082    0.1000
     38 H38         0.0851    0.9700   49.1734 H       1  ZINC000583220082    0.1300
     39 H39        -2.1859    1.9174   49.2055 H       1  ZINC000583220082    0.1300
     40 H40        -3.2987    4.5084   50.1026 H       1  ZINC000583220082    0.4200
     41 H41        -6.3761    1.7905   49.9642 H       1  ZINC000583220082    0.0900
     42 H42        -5.1246    1.5997   51.2203 H       1  ZINC000583220082    0.1700
     43 H43        -7.0708    0.0111   51.4943 H       1  ZINC000583220082    0.1100
     44 H44        -6.8217    1.0754   52.8996 H       1  ZINC000583220082    0.0700
     45 H45       -10.5214   -0.1434   55.9583 H       1  ZINC000583220082    0.4200
     46 H46       -10.9125   -1.7013   55.4657 H       1  ZINC000583220082    0.4200
     47 H47        -9.6319    3.2515   52.1629 H       1  ZINC000583220082    0.1100
     48 H48        -8.2853    2.9275   53.2818 H       1  ZINC000583220082    0.0600
     49 H49        -7.6933    4.8452   51.8977 H       1  ZINC000583220082    0.1100
     50 H50        -8.0680    3.9333   50.4115 H       1  ZINC000583220082    0.0900
     51 H51        -1.0052    4.6167   52.3063 H       1  ZINC000583220082    0.1400
     52 H52         1.2614    3.6588   52.2688 H       1  ZINC000583220082    0.1300
@<TRIPOS>BOND
     1     1     2    1
     2     1    30    1
     3     1    31    1
     4     1    32    1
     5     2     3    1
     6     2     4   am
     7     3    33    1
     8     3    34    1
     9     3    35    1
    10     4     5    2
    11     4     6    1
    12     6     7    1
    13     6    36    1
    14     6    37    1
    15     7    29   ar
    16     7     8   ar
    17     8     9   ar
    18     8    38    1
    19     9    10   ar
    20     9    39    1
    21    10    11    1
    22    10    28   ar
    23    11    12   am
    24    11    40    1
    25    12    13    2
    26    12    14    1
    27    14    15    2
    28    14    16   am
    29    16    27    1
    30    16    17    1
    31    17    18    1
    32    17    41    1
    33    17    42    1
    34    18    19    1
    35    18    43    1
    36    18    44    1
    37    19    20    1
    38    19    26    1
    39    20    25    1
    40    20    21    2
    41    21    22    1
    42    22    23    1
    43    22    24    2
    44    23    45    1
    45    23    46    1
    46    24    25    1
    47    26    27    1
    48    26    47    1
    49    26    48    1
    50    27    49    1
    51    27    50    1
    52    28    29   ar
    53    28    51    1
    54    29    52    1
@<TRIPOS>SUBSTRUCTURE
     1 ZINC000583220082        1 TEMP              0 ****  ****    0 ROOT


##########                                Name:    ZINC000842947763
##########                DOCK_Rotatable_Bonds:                   7
##########                         Heavy_Atoms:                  24
##########                    Molecular_Weight:             365.373
##########                DOCK_Rotatable_Bonds:                   7
##########                       Formal_Charge:          0.00999997
##########                     HBond_Acceptors:                   9
##########                        HBond_Donors:                   0
##########                         Heavy_Atoms:                  24
##########                          Grid_Score:          -29.375713
##########                     Grid_vdw_energy:          -28.884094
##########                      Grid_es_energy:           -0.491619
##########           Internal_energy_repulsive:           35.556625

@<TRIPOS>MOLECULE
ZINC000842947763
 42 43 1 0 0
SMALL
USER_CHARGES


@<TRIPOS>ATOM
      1 C1         -7.9350    1.2881   63.4050 C.3     1  ZINC000842947763   -0.1600
      2 C2         -8.8263    0.1301   62.9519 C.3     1  ZINC000842947763   -0.1000
      3 H3         -8.7040   -0.7111   63.6342 H       1  ZINC000842947763    0.1000
      4 C4         -8.4268   -0.2979   61.5382 C.3     1  ZINC000842947763    0.0800
      5 O5         -9.4297   -1.2024   61.0049 O.3     1  ZINC000842947763   -0.3500
      6 C6         -9.8179   -1.0023   59.7299 C.2     1  ZINC000842947763    0.5200
      7 O7         -9.1350   -0.3265   58.9859 O.2     1  ZINC000842947763   -0.5100
      8 C8        -11.0708   -1.6028   59.2383 C.ar    1  ZINC000842947763   -0.1600
      9 C9        -11.1889   -1.9887   57.8994 C.ar    1  ZINC000842947763   -0.0200
     10 C10       -12.3593   -2.5482   57.4475 C.ar    1  ZINC000842947763   -0.1700
     11 C11       -13.4379   -2.7348   58.3207 C.ar    1  ZINC000842947763    0.2000
     12 C12       -13.3107   -2.3479   59.6497 C.ar    1  ZINC000842947763   -0.1500
     13 C13       -12.1479   -1.7959   60.1084 C.ar    1  ZINC000842947763   -0.0100
     14 C14       -14.6073   -2.6584   60.3647 C.3     1  ZINC000842947763   -0.0800
     15 C15       -15.5051   -3.2758   59.2800 C.3     1  ZINC000842947763    0.1100
     16 N16       -14.6911   -3.2768   58.0620 N.am    1  ZINC000842947763   -0.9400
     17 S17       -15.1924   -3.8420   56.5885 S.o2    1  ZINC000842947763    2.6100
     18 C18       -15.5845   -5.5885   56.8831 C.3     1  ZINC000842947763   -0.6700
     19 O19       -16.3758   -3.1047   56.3143 O.2     1  ZINC000842947763   -0.9300
     20 O20       -14.0454   -3.7218   55.7582 O.2     1  ZINC000842947763   -0.9400
     21 C21       -10.2884    0.5805   62.9543 C.3     1  ZINC000842947763   -0.1600
     22 C22       -10.6770    1.0437   64.3598 C.3     1  ZINC000842947763    0.4600
     23 F23       -10.0091    0.2631   65.3094 F       1  ZINC000842947763   -0.1800
     24 F24       -10.3186    2.3861   64.5241 F       1  ZINC000842947763   -0.1800
     25 F25       -12.0585    0.9056   64.5310 F       1  ZINC000842947763   -0.1800
     26 H26        -8.1227    1.5006   64.4576 H       1  ZINC000842947763    0.0700
     27 H27        -6.8883    1.0154   63.2703 H       1  ZINC000842947763    0.0700
     28 H28        -8.1593    2.1736   62.8102 H       1  ZINC000842947763    0.0600
     29 H29        -8.3544    0.5820   60.8990 H       1  ZINC000842947763    0.0800
     30 H30        -7.4618   -0.8038   61.5708 H       1  ZINC000842947763    0.0800
     31 H31       -10.3607   -1.8467   57.2209 H       1  ZINC000842947763    0.1500
     32 H32       -12.4482   -2.8455   56.4130 H       1  ZINC000842947763    0.1500
     33 H33       -12.0636   -1.5005   61.1438 H       1  ZINC000842947763    0.1400
     34 H34       -14.4363   -3.3731   61.1697 H       1  ZINC000842947763    0.1000
     35 H35       -15.0552   -1.7444   60.7548 H       1  ZINC000842947763    0.1000
     36 H36       -15.7801   -4.2949   59.5519 H       1  ZINC000842947763    0.1000
     37 H37       -16.3983   -2.6676   59.1372 H       1  ZINC000842947763    0.0900
     38 H38       -16.3694   -5.6626   57.6359 H       1  ZINC000842947763    0.1300
     39 H39       -15.9272   -6.0456   55.9548 H       1  ZINC000842947763    0.1400
     40 H40       -14.6927   -6.1066   57.2358 H       1  ZINC000842947763    0.1300
     41 H41       -10.4160    1.4043   62.2521 H       1  ZINC000842947763    0.1200
     42 H42       -10.9257   -0.2524   62.6571 H       1  ZINC000842947763    0.1100
@<TRIPOS>BOND
     1     1     2    1
     2     1    26    1
     3     1    27    1
     4     1    28    1
     5     2     3    1
     6     2     4    1
     7     2    21    1
     8     4     5    1
     9     4    29    1
    10     4    30    1
    11     5     6    1
    12     6     7    2
    13     6     8    1
    14     8    13   ar
    15     8     9   ar
    16     9    10   ar
    17     9    31    1
    18    10    11   ar
    19    10    32    1
    20    11    16    1
    21    11    12   ar
    22    12    13   ar
    23    12    14    1
    24    13    33    1
    25    14    15    1
    26    14    34    1
    27    14    35    1
    28    15    16    1
    29    15    36    1
    30    15    37    1
    31    16    17   am
    32    17    18    1
    33    17    19    2
    34    17    20    2
    35    18    38    1
    36    18    39    1
    37    18    40    1
    38    21    22    1
    39    21    41    1
    40    21    42    1
    41    22    23    1
    42    22    24    1
    43    22    25    1
@<TRIPOS>SUBSTRUCTURE
     1 ZINC000842947763        1 TEMP              0 ****  ****    0 ROOT


##########                                Name:    ZINC000301324012
##########                DOCK_Rotatable_Bonds:                   7
##########                         Heavy_Atoms:                  28
##########                    Molecular_Weight:               415.9
##########                DOCK_Rotatable_Bonds:                   7
##########                       Formal_Charge:          -0.0100002
##########                     HBond_Acceptors:                   8
##########                        HBond_Donors:                   2
##########                         Heavy_Atoms:                  28
##########                          Grid_Score:          -29.362261
##########                     Grid_vdw_energy:          -27.692812
##########                      Grid_es_energy:           -1.669448
##########           Internal_energy_repulsive:            9.182221

@<TRIPOS>MOLECULE
ZINC000301324012
 46 48 1 0 0
SMALL
USER_CHARGES


@<TRIPOS>ATOM
      1 C1         -2.9479    3.3526   54.1107 C.3     1  ZINC000301324012   -0.1600
      2 C2         -3.0266    3.5148   52.5913 C.3     1  ZINC000301324012    0.2000
      3 H3         -2.9351    4.5699   52.3334 H       1  ZINC000301324012    0.1100
      4 N4         -1.9380    2.7624   51.9628 N.am    1  ZINC000301324012   -0.7100
      5 C5         -1.6450    2.9603   50.6623 C.2     1  ZINC000301324012    0.5500
      6 O6         -2.2830    3.7644   50.0111 O.2     1  ZINC000301324012   -0.5300
      7 C7         -0.5476    2.1996   50.0277 C.ar    1  ZINC000301324012   -0.0700
      8 C8         -0.6786    1.7432   48.7152 C.ar    1  ZINC000301324012   -0.1100
      9 C9          0.3493    1.0343   48.1288 C.ar    1  ZINC000301324012   -0.0200
     10 C10         1.5082    0.7753   48.8388 C.ar    1  ZINC000301324012   -0.6600
     11 S11         2.8163   -0.1312   48.0824 S.o2    1  ZINC000301324012    2.6900
     12 O12         3.5587   -0.7224   49.1401 O.2     1  ZINC000301324012   -0.9400
     13 O13         2.2270   -0.8840   47.0311 O.2     1  ZINC000301324012   -0.9400
     14 N14         3.8229    0.9690   47.3625 N.am    1  ZINC000301324012   -1.0500
     15 C15         3.3329    1.8160   46.3647 C.ar    1  ZINC000301324012    0.1600
     16 C16         2.5647    2.9213   46.7055 C.ar    1  ZINC000301324012   -0.1600
     17 C17         2.0818    3.7567   45.7168 C.ar    1  ZINC000301324012   -0.0800
     18 C18         2.3621    3.4934   44.3888 C.ar    1  ZINC000301324012   -0.1200
     19 C19         3.1270    2.3935   44.0449 C.ar    1  ZINC000301324012   -0.0900
     20 C20         3.6183    1.5572   45.0289 C.ar    1  ZINC000301324012   -0.0600
     21 Cl21        4.5783    0.1768   44.5968 Cl      1  ZINC000301324012   -0.0600
     22 C22         1.6448    1.2253   50.1401 C.ar    1  ZINC000301324012   -0.0200
     23 C23         0.6264    1.9397   50.7364 C.ar    1  ZINC000301324012   -0.0800
     24 C24        -4.3503    2.9901   52.0980 C.ar    1  ZINC000301324012    0.1200
     25 C25        -5.4503    3.8261   52.0743 C.ar    1  ZINC000301324012   -0.1600
     26 C26        -6.6637    3.3335   51.6182 C.ar    1  ZINC000301324012   -0.0700
     27 C27        -6.7248    2.0128   51.2012 C.ar    1  ZINC000301324012   -0.1700
     28 C28        -5.5824    1.2364   51.2536 C.ar    1  ZINC000301324012    0.1100
     29 N29        -4.4441    1.7399   51.6888 N.ar    1  ZINC000301324012   -0.4900
     30 H30        -3.7577    3.9125   54.5783 H       1  ZINC000301324012    0.0700
     31 H31        -3.0393    2.2975   54.3686 H       1  ZINC000301324012    0.0600
     32 H32        -1.9904    3.7322   54.4675 H       1  ZINC000301324012    0.0700
     33 H33        -1.4281    2.1216   52.4828 H       1  ZINC000301324012    0.4100
     34 H34        -1.5831    1.9441   48.1601 H       1  ZINC000301324012    0.1400
     35 H35         0.2492    0.6806   47.1132 H       1  ZINC000301324012    0.1500
     36 H36         4.7526    1.0255   47.6333 H       1  ZINC000301324012    0.4300
     37 H37         2.3446    3.1275   47.7425 H       1  ZINC000301324012    0.1700
     38 H38         1.4842    4.6165   45.9816 H       1  ZINC000301324012    0.1400
     39 H39         1.9826    4.1480   43.6181 H       1  ZINC000301324012    0.1400
     40 H40         3.3440    2.1908   43.0066 H       1  ZINC000301324012    0.1400
     41 H41         2.5521    1.0201   50.6888 H       1  ZINC000301324012    0.1500
     42 H42         0.7344    2.2908   51.7522 H       1  ZINC000301324012    0.1500
     43 H43        -5.3663    4.8500   52.4073 H       1  ZINC000301324012    0.1400
     44 H44        -7.5403    3.9637   51.5887 H       1  ZINC000301324012    0.1400
     45 H45        -7.6534    1.5957   50.8403 H       1  ZINC000301324012    0.1400
     46 H46        -5.6219    0.2065   50.9310 H       1  ZINC000301324012    0.1600
@<TRIPOS>BOND
     1     1     2    1
     2     1    30    1
     3     1    31    1
     4     1    32    1
     5     2     3    1
     6     2     4    1
     7     2    24    1
     8     4     5   am
     9     4    33    1
    10     5     6    2
    11     5     7    1
    12     7    23   ar
    13     7     8   ar
    14     8     9   ar
    15     8    34    1
    16     9    10   ar
    17     9    35    1
    18    10    11    1
    19    10    22   ar
    20    11    12    2
    21    11    13    2
    22    11    14   am
    23    14    15    1
    24    14    36    1
    25    15    20   ar
    26    15    16   ar
    27    16    17   ar
    28    16    37    1
    29    17    18   ar
    30    17    38    1
    31    18    19   ar
    32    18    39    1
    33    19    20   ar
    34    19    40    1
    35    20    21    1
    36    22    23   ar
    37    22    41    1
    38    23    42    1
    39    24    29   ar
    40    24    25   ar
    41    25    26   ar
    42    25    43    1
    43    26    27   ar
    44    26    44    1
    45    27    28   ar
    46    27    45    1
    47    28    29   ar
    48    28    46    1
@<TRIPOS>SUBSTRUCTURE
     1 ZINC000301324012        1 TEMP              0 ****  ****    0 ROOT


##########                                Name:    ZINC000508571532
##########                DOCK_Rotatable_Bonds:                   9
##########                         Heavy_Atoms:                  30
##########                    Molecular_Weight:             422.407
##########                DOCK_Rotatable_Bonds:                   9
##########                       Formal_Charge:           0.0100001
##########                     HBond_Acceptors:                  10
##########                        HBond_Donors:                   0
##########                         Heavy_Atoms:                  30
##########                          Grid_Score:          -29.355299
##########                     Grid_vdw_energy:          -29.461514
##########                      Grid_es_energy:            0.106214
##########           Internal_energy_repulsive:           17.839460

@<TRIPOS>MOLECULE
ZINC000508571532
 51 53 1 0 0
SMALL
USER_CHARGES


@<TRIPOS>ATOM
      1 C1         -2.2516    4.8239   52.0850 C.3     1  ZINC000508571532    0.0300
      2 O2         -2.8256    4.0316   51.0435 O.3     1  ZINC000508571532   -0.3200
      3 C3         -3.9881    3.3860   51.3282 C.ar    1  ZINC000508571532    0.0900
      4 C4         -4.5955    2.5945   50.3648 C.ar    1  ZINC000508571532   -0.1700
      5 C5         -5.7764    1.9386   50.6538 C.ar    1  ZINC000508571532   -0.1100
      6 C6         -6.3543    2.0713   51.9076 C.ar    1  ZINC000508571532    0.0900
      7 O7         -7.5170    1.4260   52.1920 O.3     1  ZINC000508571532   -0.3100
      8 C8         -7.9396    1.4218   53.5571 C.3     1  ZINC000508571532    0.1500
      9 C9         -9.1902    0.5922   53.6933 C.2     1  ZINC000508571532    0.1700
     10 N10        -9.5657   -0.3741   52.9040 N.2     1  ZINC000508571532   -0.2500
     11 N11       -10.6808   -0.8673   53.3108 N.2     1  ZINC000508571532   -0.3000
     12 C12       -11.0796   -0.2370   54.3903 C.2     1  ZINC000508571532    0.3500
     13 N13       -12.2356   -0.4892   55.1118 N.3     1  ZINC000508571532   -0.4600
     14 C14       -13.4204    0.0051   54.3977 C.3     1  ZINC000508571532    0.0300
     15 C15       -12.3640   -1.9205   55.4169 C.3     1  ZINC000508571532    0.1100
     16 C16       -12.5481   -2.1032   56.9014 C.ar    1  ZINC000508571532   -0.0900
     17 C17       -11.4973   -1.8582   57.7636 C.ar    1  ZINC000508571532   -0.0600
     18 C18       -11.6655   -2.0261   59.1259 C.ar    1  ZINC000508571532   -0.1300
     19 C19       -12.8854   -2.4390   59.6283 C.ar    1  ZINC000508571532   -0.0700
     20 C20       -13.9399   -2.6850   58.7701 C.ar    1  ZINC000508571532   -0.1900
     21 C21       -13.7752   -2.5122   57.4036 C.ar    1  ZINC000508571532    0.1100
     22 O22       -14.8108   -2.7535   56.5574 O.3     1  ZINC000508571532   -0.3100
     23 C23       -15.3239   -4.0868   56.5237 C.3     1  ZINC000508571532    0.6000
     24 F24       -14.3455   -4.9749   56.9834 F       1  ZINC000508571532   -0.1600
     25 F25       -16.4539   -4.1725   57.3442 F       1  ZINC000508571532   -0.1300
     26 F26       -15.6749   -4.4184   55.2107 F       1  ZINC000508571532   -0.1600
     27 N27       -10.1384    0.7100   54.6716 N.pl3   1  ZINC000508571532   -0.4500
     28 C28       -10.1467    1.6620   55.7850 C.3     1  ZINC000508571532    0.0800
     29 C29        -5.7462    2.8617   52.8715 C.ar    1  ZINC000508571532   -0.1700
     30 C30        -4.5633    3.5145   52.5837 C.ar    1  ZINC000508571532   -0.1100
     31 H31        -1.3300    5.2824   51.7268 H       1  ZINC000508571532    0.1000
     32 H32        -2.9550    5.6031   52.3785 H       1  ZINC000508571532    0.0600
     33 H33        -2.0320    4.1903   52.9444 H       1  ZINC000508571532    0.0600
     34 H34        -4.1454    2.4911   49.3885 H       1  ZINC000508571532    0.1400
     35 H35        -6.2497    1.3228   49.9034 H       1  ZINC000508571532    0.1300
     36 H36        -7.1522    0.9972   54.1799 H       1  ZINC000508571532    0.0800
     37 H37        -8.1446    2.4434   53.8770 H       1  ZINC000508571532    0.1000
     38 H38       -13.5792   -0.5925   53.5001 H       1  ZINC000508571532    0.0600
     39 H39       -14.2936   -0.0726   55.0453 H       1  ZINC000508571532    0.0800
     40 H40       -13.2673    1.0474   54.1178 H       1  ZINC000508571532    0.0700
     41 H41       -13.2272   -2.3281   54.8908 H       1  ZINC000508571532    0.0700
     42 H42       -11.4628   -2.4426   55.0955 H       1  ZINC000508571532    0.0900
     43 H43       -10.5433   -1.5355   57.3734 H       1  ZINC000508571532    0.1400
     44 H44       -10.8424   -1.8347   59.7983 H       1  ZINC000508571532    0.1300
     45 H45       -13.0142   -2.5698   60.6926 H       1  ZINC000508571532    0.1400
     46 H46       -14.8926   -3.0079   59.1631 H       1  ZINC000508571532    0.1400
     47 H47        -9.5623    1.2588   56.6122 H       1  ZINC000508571532    0.0900
     48 H48        -9.7111    2.6065   55.4589 H       1  ZINC000508571532    0.0900
     49 H49       -11.1728    1.8290   56.1126 H       1  ZINC000508571532    0.1000
     50 H50        -6.1961    2.9648   53.8479 H       1  ZINC000508571532    0.1400
     51 H51        -4.0897    4.1300   53.3342 H       1  ZINC000508571532    0.1400
@<TRIPOS>BOND
     1     1     2    1
     2     1    31    1
     3     1    32    1
     4     1    33    1
     5     2     3    1
     6     3    30   ar
     7     3     4   ar
     8     4     5   ar
     9     4    34    1
    10     5     6   ar
    11     5    35    1
    12     6     7    1
    13     6    29   ar
    14     7     8    1
    15     8     9    1
    16     8    36    1
    17     8    37    1
    18     9    27    1
    19     9    10    2
    20    10    11    1
    21    11    12    2
    22    12    13    1
    23    12    27    1
    24    13    14    1
    25    13    15    1
    26    14    38    1
    27    14    39    1
    28    14    40    1
    29    15    16    1
    30    15    41    1
    31    15    42    1
    32    16    21   ar
    33    16    17   ar
    34    17    18   ar
    35    17    43    1
    36    18    19   ar
    37    18    44    1
    38    19    20   ar
    39    19    45    1
    40    20    21   ar
    41    20    46    1
    42    21    22    1
    43    22    23    1
    44    23    24    1
    45    23    25    1
    46    23    26    1
    47    27    28    1
    48    28    47    1
    49    28    48    1
    50    28    49    1
    51    29    30   ar
    52    29    50    1
    53    30    51    1
@<TRIPOS>SUBSTRUCTURE
     1 ZINC000508571532        1 TEMP              0 ****  ****    0 ROOT


##########                                Name:    ZINC000011157684
##########                DOCK_Rotatable_Bonds:                   7
##########                         Heavy_Atoms:                  25
##########                    Molecular_Weight:             374.866
##########                DOCK_Rotatable_Bonds:                   7
##########                       Formal_Charge:           0.0400001
##########                     HBond_Acceptors:                   6
##########                        HBond_Donors:                   2
##########                         Heavy_Atoms:                  25
##########                          Grid_Score:          -29.353653
##########                     Grid_vdw_energy:          -26.998196
##########                      Grid_es_energy:           -2.355457
##########           Internal_energy_repulsive:            9.780812

@<TRIPOS>MOLECULE
ZINC000011157684
 41 43 1 0 0
SMALL
USER_CHARGES


@<TRIPOS>ATOM
      1 O1         -3.1491    4.5578   51.7462 O.2     1  ZINC000011157684   -0.5200
      2 C2         -3.4885    3.3951   51.8081 C.2     1  ZINC000011157684    0.5100
      3 C3         -3.2875    2.4873   50.6221 C.3     1  ZINC000011157684    0.1000
      4 N4         -2.2368    3.0349   49.7605 N.pl3   1  ZINC000011157684   -0.7300
      5 C5         -0.9335    2.5328   49.8411 C.ar    1  ZINC000011157684    0.2200
      6 C6         -0.2215    2.6350   51.0282 C.ar    1  ZINC000011157684   -0.1600
      7 C7          1.0654    2.1380   51.1060 C.ar    1  ZINC000011157684   -0.0900
      8 C8          1.6455    1.5388   50.0011 C.ar    1  ZINC000011157684    0.0500
      9 F9          2.9041    1.0541   50.0797 F       1  ZINC000011157684   -0.1400
     10 C10         0.9375    1.4349   48.8154 C.ar    1  ZINC000011157684   -0.0900
     11 C11        -0.3517    1.9257   48.7343 C.ar    1  ZINC000011157684   -0.0900
     12 Cl12       -1.2391    1.7956   47.2480 Cl      1  ZINC000011157684   -0.0500
     13 N13        -4.0402    2.9134   52.9395 N.am    1  ZINC000011157684   -0.7200
     14 C14        -4.2356    3.7959   54.0924 C.3     1  ZINC000011157684    0.2600
     15 H15        -4.3573    4.8228   53.7476 H       1  ZINC000011157684    0.1200
     16 C16        -3.0357    3.7097   55.0001 C.2     1  ZINC000011157684   -0.1900
     17 C17        -2.0249    4.5797   55.0232 C.2     1  ZINC000011157684   -0.1200
     18 C18        -1.0311    4.2947   55.9438 C.2     1  ZINC000011157684   -0.1300
     19 C19        -1.2349    3.1933   56.6681 C.2     1  ZINC000011157684   -0.2100
     20 S20        -2.7579    2.4506   56.1963 S.3     1  ZINC000011157684    0.1100
     21 C21        -5.4684    3.3703   54.8475 C.ar    1  ZINC000011157684   -0.0900
     22 C22        -5.6578    3.7864   56.1521 C.ar    1  ZINC000011157684   -0.1100
     23 C23        -6.7886    3.3960   56.8447 C.ar    1  ZINC000011157684   -0.1100
     24 C24        -7.7302    2.5900   56.2327 C.ar    1  ZINC000011157684   -0.1100
     25 C25        -7.5412    2.1748   54.9279 C.ar    1  ZINC000011157684   -0.1100
     26 C26        -6.4125    2.5686   54.2337 C.ar    1  ZINC000011157684   -0.1000
     27 H27        -2.9935    1.4965   50.9686 H       1  ZINC000011157684    0.1000
     28 H28        -4.2177    2.4140   50.0588 H       1  ZINC000011157684    0.1000
     29 H29        -2.4448    3.7457   49.1340 H       1  ZINC000011157684    0.4200
     30 H30        -0.6730    3.1029   51.8905 H       1  ZINC000011157684    0.1400
     31 H31         1.6194    2.2174   52.0296 H       1  ZINC000011157684    0.1400
     32 H32         1.3919    0.9668   47.9547 H       1  ZINC000011157684    0.1500
     33 H33        -4.3080    1.9825   52.9903 H       1  ZINC000011157684    0.4000
     34 H34        -1.9848    5.4409   54.3729 H       1  ZINC000011157684    0.1400
     35 H35        -0.1568    4.9169   56.0659 H       1  ZINC000011157684    0.1400
     36 H36        -0.5685    2.8172   57.4302 H       1  ZINC000011157684    0.1700
     37 H37        -4.9222    4.4161   56.6302 H       1  ZINC000011157684    0.1200
     38 H38        -6.9362    3.7206   57.8643 H       1  ZINC000011157684    0.1300
     39 H39        -8.6134    2.2845   56.7742 H       1  ZINC000011157684    0.1300
     40 H40        -8.2767    1.5447   54.4498 H       1  ZINC000011157684    0.1300
     41 H41        -6.2650    2.2441   53.2143 H       1  ZINC000011157684    0.1300
@<TRIPOS>BOND
     1     1     2    2
     2     2     3    1
     3     2    13   am
     4     3     4    1
     5     3    27    1
     6     3    28    1
     7     4     5    1
     8     4    29    1
     9     5    11   ar
    10     5     6   ar
    11     6     7   ar
    12     6    30    1
    13     7     8   ar
    14     7    31    1
    15     8     9    1
    16     8    10   ar
    17    10    11   ar
    18    10    32    1
    19    11    12    1
    20    13    14    1
    21    13    33    1
    22    14    15    1
    23    14    16    1
    24    14    21    1
    25    16    20    1
    26    16    17    2
    27    17    18    1
    28    17    34    1
    29    18    19    2
    30    18    35    1
    31    19    20    1
    32    19    36    1
    33    21    26   ar
    34    21    22   ar
    35    22    23   ar
    36    22    37    1
    37    23    24   ar
    38    23    38    1
    39    24    25   ar
    40    24    39    1
    41    25    26   ar
    42    25    40    1
    43    26    41    1
@<TRIPOS>SUBSTRUCTURE
     1 ZINC000011157684        1 TEMP              0 ****  ****    0 ROOT


##########                                Name:    ZINC000788423111
##########                DOCK_Rotatable_Bonds:                   7
##########                         Heavy_Atoms:                  23
##########                    Molecular_Weight:             399.243
##########                DOCK_Rotatable_Bonds:                   7
##########                       Formal_Charge:         1.04308e-07
##########                     HBond_Acceptors:                   8
##########                        HBond_Donors:                   1
##########                         Heavy_Atoms:                  23
##########                          Grid_Score:          -29.349331
##########                     Grid_vdw_energy:          -28.520378
##########                      Grid_es_energy:           -0.828953
##########           Internal_energy_repulsive:            3.768286

@<TRIPOS>MOLECULE
ZINC000788423111
 35 37 1 0 0
SMALL
USER_CHARGES


@<TRIPOS>ATOM
      1 O1         -1.7431    4.5712   51.3436 O.3     1  ZINC000788423111   -0.5400
      2 C2         -2.0910    3.2234   51.0201 C.3     1  ZINC000788423111    0.1000
      3 H3         -1.3873    2.5418   51.4979 H       1  ZINC000788423111    0.1300
      4 C4         -2.0357    3.0325   49.5031 C.3     1  ZINC000788423111    0.0300
      5 O5         -1.6174    1.6987   49.2058 O.3     1  ZINC000788423111   -0.2900
      6 C6         -0.4000    1.5501   48.6204 C.ar    1  ZINC000788423111    0.1700
      7 C7         -0.1618    2.0921   47.3664 C.ar    1  ZINC000788423111   -0.2400
      8 C8          1.0786    1.9394   46.7721 C.ar    1  ZINC000788423111    0.1500
      9 F9          1.3119    2.4670   45.5505 F       1  ZINC000788423111   -0.1300
     10 C10         2.0809    1.2464   47.4295 C.ar    1  ZINC000788423111   -0.1600
     11 C11         1.8439    0.7050   48.6804 C.ar    1  ZINC000788423111   -0.0300
     12 Br12        3.2149   -0.2410   49.5756 Br      1  ZINC000788423111   -0.0200
     13 C13         0.6079    0.8606   49.2793 C.ar    1  ZINC000788423111   -0.1300
     14 C14        -3.5065    2.9281   51.5201 C.3     1  ZINC000788423111    0.1000
     15 N15        -3.5310    2.9928   52.9834 N.pl3   1  ZINC000788423111   -0.1300
     16 N16        -4.5813    3.1855   53.7023 N.2     1  ZINC000788423111   -0.0500
     17 N17        -4.2437    3.1851   54.9472 N.2     1  ZINC000788423111   -0.2600
     18 C18        -2.9183    2.9817   55.0001 C.2     1  ZINC000788423111    0.2400
     19 C19        -2.0840    2.9030   56.2190 C.2     1  ZINC000788423111   -0.1300
     20 C20        -2.4004    3.4383   57.4142 C.2     1  ZINC000788423111   -0.0800
     21 C21        -1.4617    3.2337   58.4047 C.2     1  ZINC000788423111   -0.1400
     22 C22        -0.3850    2.5377   58.0289 C.2     1  ZINC000788423111   -0.2000
     23 S23        -0.5287    2.0895   56.3344 S.3     1  ZINC000788423111    0.1700
     24 N24        -2.5054    2.8601   53.7524 N.2     1  ZINC000788423111   -0.2900
     25 H25        -1.5505    4.7136   52.2804 H       1  ZINC000788423111    0.3800
     26 H26        -3.0246    3.2061   49.0788 H       1  ZINC000788423111    0.0900
     27 H27        -1.3266    3.7400   49.0735 H       1  ZINC000788423111    0.0800
     28 H28        -0.9438    2.6327   46.8538 H       1  ZINC000788423111    0.1500
     29 H29         3.0488    1.1280   46.9651 H       1  ZINC000788423111    0.1500
     30 H30         0.4238    0.4379   50.2559 H       1  ZINC000788423111    0.1500
     31 H31        -4.1973    3.6660   51.1122 H       1  ZINC000788423111    0.1300
     32 H32        -3.8060    1.9316   51.1953 H       1  ZINC000788423111    0.1300
     33 H33        -3.3163    3.9849   57.5836 H       1  ZINC000788423111    0.1500
     34 H34        -1.5880    3.6087   59.4096 H       1  ZINC000788423111    0.1500
     35 H35         0.4463    2.2847   58.6702 H       1  ZINC000788423111    0.1700
@<TRIPOS>BOND
     1     1     2    1
     2     1    25    1
     3     2     3    1
     4     2     4    1
     5     2    14    1
     6     4     5    1
     7     4    26    1
     8     4    27    1
     9     5     6    1
    10     6    13   ar
    11     6     7   ar
    12     7     8   ar
    13     7    28    1
    14     8     9    1
    15     8    10   ar
    16    10    11   ar
    17    10    29    1
    18    11    12    1
    19    11    13   ar
    20    13    30    1
    21    14    15    1
    22    14    31    1
    23    14    32    1
    24    15    24    1
    25    15    16    1
    26    16    17    2
    27    17    18    1
    28    18    19    1
    29    18    24    2
    30    19    23    1
    31    19    20    2
    32    20    21    1
    33    20    33    1
    34    21    22    2
    35    21    34    1
    36    22    23    1
    37    22    35    1
@<TRIPOS>SUBSTRUCTURE
     1 ZINC000788423111        1 TEMP              0 ****  ****    0 ROOT


##########                                Name:    ZINC000545381384
##########                DOCK_Rotatable_Bonds:                   6
##########                         Heavy_Atoms:                  30
##########                    Molecular_Weight:             405.543
##########                DOCK_Rotatable_Bonds:                   6
##########                       Formal_Charge:                0.05
##########                     HBond_Acceptors:                   6
##########                        HBond_Donors:                   1
##########                         Heavy_Atoms:                  30
##########                          Grid_Score:          -29.345999
##########                     Grid_vdw_energy:          -29.540562
##########                      Grid_es_energy:            0.194563
##########           Internal_energy_repulsive:           16.871216

@<TRIPOS>MOLECULE
ZINC000545381384
 61 64 1 0 0
SMALL
USER_CHARGES


@<TRIPOS>ATOM
      1 C1          2.5528    3.0104   51.6820 C.3     1  ZINC000545381384   -0.2000
      2 C2          1.7666    4.1472   52.3381 C.3     1  ZINC000545381384    0.0500
      3 N3          0.3398    3.7992   52.3733 N.3     1  ZINC000545381384   -0.5300
      4 C4         -0.4337    4.6522   51.4573 C.3     1  ZINC000545381384    0.0500
      5 C5         -1.8089    4.0191   51.2471 C.3     1  ZINC000545381384   -0.0700
      6 C6         -2.4399    3.7028   52.5819 C.ar    1  ZINC000545381384    0.1800
      7 C7         -1.6765    3.6472   53.7421 C.ar    1  ZINC000545381384   -0.0800
      8 C8         -0.1931    3.9042   53.7354 C.3     1  ZINC000545381384    0.0900
      9 C9         -2.2891    3.3481   54.9565 C.ar    1  ZINC000545381384   -0.0700
     10 C10        -1.5035    3.2782   56.2071 C.2     1  ZINC000545381384    0.5800
     11 O11        -1.5982    4.1635   57.0346 O.2     1  ZINC000545381384   -0.4800
     12 N12        -0.6824    2.2329   56.4293 N.am    1  ZINC000545381384   -0.6400
     13 C13         0.0568    2.1661   57.6086 C.2     1  ZINC000545381384    0.3000
     14 C14        -0.4466    2.0939   58.8717 C.2     1  ZINC000545381384   -0.2700
     15 C15         0.6306    2.0430   59.7601 C.2     1  ZINC000545381384    0.1000
     16 C16         0.5312    1.9567   61.2613 C.3     1  ZINC000545381384   -0.0300
     17 C17         0.8695    0.5348   61.7139 C.3     1  ZINC000545381384   -0.0600
     18 C18         0.3035   -0.4690   60.7074 C.3     1  ZINC000545381384   -0.1500
     19 C19         2.3887    0.3735   61.7958 C.3     1  ZINC000545381384   -0.1400
     20 C20         0.2544    0.2780   63.0912 C.3     1  ZINC000545381384   -0.1400
     21 N21         1.7402    2.0825   59.0680 N.2     1  ZINC000545381384   -0.2700
     22 N22         1.4112    2.1552   57.7083 N.pl3   1  ZINC000545381384   -0.3900
     23 C23         2.3593    2.2173   56.5932 C.3     1  ZINC000545381384    0.1000
     24 C24        -3.6858    3.1134   54.9603 C.ar    1  ZINC000545381384   -0.0700
     25 C25        -4.3753    2.8083   56.1406 C.ar    1  ZINC000545381384   -0.1100
     26 C26        -5.7200    2.5913   56.0986 C.ar    1  ZINC000545381384   -0.1000
     27 C27        -6.4184    2.6687   54.8953 C.ar    1  ZINC000545381384   -0.1000
     28 C28        -5.7796    2.9617   53.7303 C.ar    1  ZINC000545381384   -0.0900
     29 C29        -4.3914    3.1925   53.7341 C.ar    1  ZINC000545381384    0.1400
     30 N30        -3.7379    3.4810   52.6093 N.ar    1  ZINC000545381384   -0.4600
     31 H31         2.3892    2.0873   52.2382 H       1  ZINC000545381384    0.0600
     32 H32         2.2140    2.8802   50.6543 H       1  ZINC000545381384    0.0600
     33 H33         3.6154    3.2536   51.6864 H       1  ZINC000545381384    0.0700
     34 H34         2.1286    4.2997   53.3549 H       1  ZINC000545381384    0.0900
     35 H35         1.9033    5.0628   51.7626 H       1  ZINC000545381384    0.0800
     36 H36        -0.5505    5.6449   51.8923 H       1  ZINC000545381384    0.0500
     37 H37         0.0846    4.7272   50.5015 H       1  ZINC000545381384    0.0900
     38 H38        -2.4471    4.7134   50.7005 H       1  ZINC000545381384    0.1000
     39 H39        -1.6999    3.1000   50.6714 H       1  ZINC000545381384    0.1000
     40 H40         0.3022    3.1722   54.3734 H       1  ZINC000545381384    0.0900
     41 H41         0.0009    4.9046   54.1223 H       1  ZINC000545381384    0.0700
     42 H42        -0.6059    1.5270   55.7685 H       1  ZINC000545381384    0.4100
     43 H43        -1.4928    2.0790   59.1394 H       1  ZINC000545381384    0.1700
     44 H44         1.2327    2.6582   61.7128 H       1  ZINC000545381384    0.0800
     45 H45        -0.4831    2.2056   61.5732 H       1  ZINC000545381384    0.0800
     46 H46         0.7417   -0.2861   59.7263 H       1  ZINC000545381384    0.0500
     47 H47         0.5445   -1.4820   61.0299 H       1  ZINC000545381384    0.0500
     48 H48        -0.7789   -0.3542   60.6491 H       1  ZINC000545381384    0.0800
     49 H49         2.7919    1.0886   62.5128 H       1  ZINC000545381384    0.0600
     50 H50         2.6297   -0.6395   62.1182 H       1  ZINC000545381384    0.0600
     51 H51         2.8269    0.5564   60.8146 H       1  ZINC000545381384    0.0600
     52 H52        -0.8280    0.3929   63.0328 H       1  ZINC000545381384    0.0500
     53 H53         0.4954   -0.7349   63.4136 H       1  ZINC000545381384    0.0500
     54 H54         0.6576    0.9932   63.8081 H       1  ZINC000545381384    0.0500
     55 H55         2.5968    1.2064   56.2614 H       1  ZINC000545381384    0.0800
     56 H56         1.9147    2.7750   55.7689 H       1  ZINC000545381384    0.0800
     57 H57         3.2717    2.7164   56.9193 H       1  ZINC000545381384    0.1000
     58 H58        -3.8443    2.7450   57.0789 H       1  ZINC000545381384    0.1300
     59 H59        -6.2509    2.3562   57.0092 H       1  ZINC000545381384    0.1300
     60 H60        -7.4840    2.4930   54.8873 H       1  ZINC000545381384    0.1400
     61 H61        -6.3358    3.0168   52.8062 H       1  ZINC000545381384    0.1400
@<TRIPOS>BOND
     1     1     2    1
     2     1    31    1
     3     1    32    1
     4     1    33    1
     5     2     3    1
     6     2    34    1
     7     2    35    1
     8     3     8    1
     9     3     4    1
    10     4     5    1
    11     4    36    1
    12     4    37    1
    13     5     6    1
    14     5    38    1
    15     5    39    1
    16     6    30   ar
    17     6     7   ar
    18     7     8    1
    19     7     9   ar
    20     8    40    1
    21     8    41    1
    22     9    10    1
    23     9    24   ar
    24    10    11    2
    25    10    12   am
    26    12    13    1
    27    12    42    1
    28    13    22    1
    29    13    14    2
    30    14    15    1
    31    14    43    1
    32    15    16    1
    33    15    21    2
    34    16    17    1
    35    16    44    1
    36    16    45    1
    37    17    18    1
    38    17    19    1
    39    17    20    1
    40    18    46    1
    41    18    47    1
    42    18    48    1
    43    19    49    1
    44    19    50    1
    45    19    51    1
    46    20    52    1
    47    20    53    1
    48    20    54    1
    49    21    22    1
    50    22    23    1
    51    23    55    1
    52    23    56    1
    53    23    57    1
    54    24    29   ar
    55    24    25   ar
    56    25    26   ar
    57    25    58    1
    58    26    27   ar
    59    26    59    1
    60    27    28   ar
    61    27    60    1
    62    28    29   ar
    63    28    61    1
    64    29    30   ar
@<TRIPOS>SUBSTRUCTURE
     1 ZINC000545381384        1 TEMP              0 ****  ****    0 ROOT


##########                                Name:    ZINC000478980774
##########                DOCK_Rotatable_Bonds:                   4
##########                         Heavy_Atoms:                  26
##########                    Molecular_Weight:             401.818
##########                DOCK_Rotatable_Bonds:                   4
##########                       Formal_Charge:          -0.0100001
##########                     HBond_Acceptors:                   9
##########                        HBond_Donors:                   1
##########                         Heavy_Atoms:                  26
##########                          Grid_Score:          -29.333286
##########                     Grid_vdw_energy:          -27.642670
##########                      Grid_es_energy:           -1.690617
##########           Internal_energy_repulsive:           10.479536

@<TRIPOS>MOLECULE
ZINC000478980774
 40 42 1 0 0
SMALL
USER_CHARGES


@<TRIPOS>ATOM
      1 C1         -3.7869    4.9210   52.7495 C.3     1  ZINC000478980774   -0.1400
      2 C2         -3.5955    3.4184   52.9643 C.3     1  ZINC000478980774   -0.4600
      3 H3         -4.5637    2.9505   53.1424 H       1  ZINC000478980774    0.1500
      4 C4         -2.9627    2.8123   51.7382 C.2     1  ZINC000478980774    0.5400
      5 O5         -3.5860    2.0214   51.0619 O.2     1  ZINC000478980774   -0.5000
      6 N6         -1.7041    3.1488   51.3931 N.am    1  ZINC000478980774   -0.6600
      7 C7         -1.1158    2.5854   50.2533 C.ar    1  ZINC000478980774    0.1600
      8 C8         -1.7613    2.6658   49.0272 C.ar    1  ZINC000478980774   -0.1200
      9 C9         -1.1824    2.1099   47.9019 C.ar    1  ZINC000478980774   -0.0600
     10 C10         0.0431    1.4712   47.9942 C.ar    1  ZINC000478980774    0.0100
     11 O11         0.8131    0.8512   47.0515 O.3     1  ZINC000478980774   -0.2900
     12 C12         2.1258    0.7490   47.6341 C.3     1  ZINC000478980774    0.5700
     13 F13         2.7557   -0.4306   47.2228 F       1  ZINC000478980774   -0.1100
     14 F14         2.9019    1.8627   47.2957 F       1  ZINC000478980774   -0.1500
     15 O15         1.8701    0.7185   49.0507 O.3     1  ZINC000478980774   -0.2800
     16 C16         0.6937    1.3892   49.2236 C.ar    1  ZINC000478980774    0.0500
     17 C17         0.1158    1.9513   50.3490 C.ar    1  ZINC000478980774   -0.0900
     18 S18        -2.5188    3.1448   54.3983 S.o     1  ZINC000478980774    1.3000
     19 O19        -1.2460    3.7270   54.1529 O.2     1  ZINC000478980774   -0.7800
     20 C20        -3.3583    4.0614   55.7196 C.3     1  ZINC000478980774   -0.4300
     21 C21        -2.5735    3.9295   56.9993 C.ar    1  ZINC000478980774   -0.0600
     22 C22        -1.8989    2.7562   57.2786 C.ar    1  ZINC000478980774   -0.1100
     23 C23        -1.1788    2.6350   58.4527 C.ar    1  ZINC000478980774   -0.1100
     24 C24        -1.1336    3.6871   59.3480 C.ar    1  ZINC000478980774   -0.1100
     25 C25        -1.8080    4.8613   59.0697 C.ar    1  ZINC000478980774   -0.1100
     26 C26        -2.5235    4.9853   57.8924 C.ar    1  ZINC000478980774   -0.0300
     27 Cl27       -3.3707    6.4596   57.5422 Cl      1  ZINC000478980774   -0.0600
     28 H28        -4.2446    5.3593   53.6363 H       1  ZINC000478980774    0.0800
     29 H29        -2.8187    5.3888   52.5714 H       1  ZINC000478980774    0.0700
     30 H30        -4.4338    5.0854   51.8878 H       1  ZINC000478980774    0.0700
     31 H31        -1.2055    3.7811   51.9340 H       1  ZINC000478980774    0.4200
     32 H32        -2.7172    3.1629   48.9525 H       1  ZINC000478980774    0.1500
     33 H33        -1.6867    2.1734   46.9490 H       1  ZINC000478980774    0.1500
     34 H34         0.6208    1.8931   51.3019 H       1  ZINC000478980774    0.1600
     35 H35        -3.4292    5.1135   55.4436 H       1  ZINC000478980774    0.1100
     36 H36        -4.3595    3.6554   55.8639 H       1  ZINC000478980774    0.1300
     37 H37        -1.9345    1.9336   56.5797 H       1  ZINC000478980774    0.1400
     38 H38        -0.6518    1.7179   58.6705 H       1  ZINC000478980774    0.1300
     39 H39        -0.5716    3.5917   60.2653 H       1  ZINC000478980774    0.1300
     40 H40        -1.7726    5.6833   59.7694 H       1  ZINC000478980774    0.1300
@<TRIPOS>BOND
     1     1     2    1
     2     1    28    1
     3     1    29    1
     4     1    30    1
     5     2     3    1
     6     2     4    1
     7     2    18    1
     8     4     5    2
     9     4     6   am
    10     6     7    1
    11     6    31    1
    12     7    17   ar
    13     7     8   ar
    14     8     9   ar
    15     8    32    1
    16     9    10   ar
    17     9    33    1
    18    10    16   ar
    19    10    11    1
    20    11    12    1
    21    12    13    1
    22    12    14    1
    23    12    15    1
    24    15    16    1
    25    16    17   ar
    26    17    34    1
    27    18    19    2
    28    18    20    1
    29    20    21    1
    30    20    35    1
    31    20    36    1
    32    21    26   ar
    33    21    22   ar
    34    22    23   ar
    35    22    37    1
    36    23    24   ar
    37    23    38    1
    38    24    25   ar
    39    24    39    1
    40    25    26   ar
    41    25    40    1
    42    26    27    1
@<TRIPOS>SUBSTRUCTURE
     1 ZINC000478980774        1 TEMP              0 ****  ****    0 ROOT


##########                                Name:    ZINC000541568816
##########                DOCK_Rotatable_Bonds:                   8
##########                         Heavy_Atoms:                  25
##########                    Molecular_Weight:             411.339
##########                DOCK_Rotatable_Bonds:                   8
##########                       Formal_Charge:          -0.0100007
##########                     HBond_Acceptors:                   5
##########                        HBond_Donors:                   1
##########                         Heavy_Atoms:                  25
##########                          Grid_Score:          -29.317032
##########                     Grid_vdw_energy:          -26.075020
##########                      Grid_es_energy:           -3.242012
##########           Internal_energy_repulsive:           19.199453

@<TRIPOS>MOLECULE
ZINC000541568816
 52 54 1 0 0
SMALL
USER_CHARGES


@<TRIPOS>ATOM
      1 C1         -8.9877    5.3262   48.7278 C.3     1  ZINC000541568816   -0.1500
      2 C2         -9.5924    4.7634   47.4399 C.3     1  ZINC000541568816    0.0600
      3 O3        -10.8609    4.1719   47.7281 O.3     1  ZINC000541568816   -0.3700
      4 C4        -11.6580    3.9135   46.5706 C.3     1  ZINC000541568816    0.0700
      5 H5        -11.0636    3.6367   45.7000 H       1  ZINC000541568816    0.0900
      6 C6        -12.7013    5.0077   46.2830 C.3     1  ZINC000541568816   -0.1700
      7 C7        -13.6791    3.8748   45.9249 C.3     1  ZINC000541568816    0.1500
      8 H8        -14.6928    4.0407   46.2897 H       1  ZINC000541568816    0.1100
      9 N9        -13.6384    3.4881   44.5124 N.am    1  ZINC000541568816   -0.7200
     10 C10       -14.6561    2.7857   43.9764 C.2     1  ZINC000541568816    0.7100
     11 O11       -15.6087    2.4742   44.6648 O.2     1  ZINC000541568816   -0.5800
     12 N12       -14.6179    2.4286   42.6774 N.am    1  ZINC000541568816   -0.6300
     13 C13       -15.7233    1.6635   42.0952 C.3     1  ZINC000541568816    0.1000
     14 C14       -15.3930    0.1704   42.1467 C.3     1  ZINC000541568816   -0.1800
     15 C15       -13.4709    2.8055   41.8476 C.3     1  ZINC000541568816    0.1700
     16 C16       -13.7307    4.1464   41.2108 C.ar    1  ZINC000541568816   -0.0700
     17 C17       -14.5183    5.0785   41.8594 C.ar    1  ZINC000541568816   -0.1000
     18 C18       -14.7567    6.3088   41.2753 C.ar    1  ZINC000541568816   -0.1000
     19 C19       -14.2072    6.6072   40.0425 C.ar    1  ZINC000541568816   -0.1200
     20 C20       -13.4194    5.6754   39.3929 C.ar    1  ZINC000541568816   -0.0900
     21 C21       -13.1763    4.4465   39.9793 C.ar    1  ZINC000541568816   -0.0900
     22 Br22      -12.0987    3.1714   39.0912 Br      1  ZINC000541568816   -0.0500
     23 C23       -12.8369    2.9714   46.8344 C.3     1  ZINC000541568816    0.0800
     24 C24       -13.3032    2.9245   48.2999 C.3     1  ZINC000541568816   -0.1200
     25 C25       -13.8839    1.4869   48.4098 C.3     1  ZINC000541568816   -0.1600
     26 C26       -12.9452    0.7140   47.4486 C.3     1  ZINC000541568816    0.0500
     27 O27       -12.6663    1.6315   46.3765 O.3     1  ZINC000541568816   -0.3600
     28 H28        -9.6550    6.0817   49.1426 H       1  ZINC000541568816    0.0600
     29 H29        -8.8573    4.5206   49.4503 H       1  ZINC000541568816    0.0600
     30 H30        -8.0201    5.7774   48.5080 H       1  ZINC000541568816    0.0700
     31 H31        -9.7228    5.5690   46.7174 H       1  ZINC000541568816    0.0500
     32 H32        -8.9250    4.0079   47.0251 H       1  ZINC000541568816    0.0500
     33 H33       -12.9945    5.5742   47.1669 H       1  ZINC000541568816    0.1000
     34 H34       -12.4433    5.6451   45.4373 H       1  ZINC000541568816    0.0800
     35 H35       -12.8790    3.7377   43.9630 H       1  ZINC000541568816    0.4000
     36 H36       -16.6348    1.8537   42.6617 H       1  ZINC000541568816    0.0900
     37 H37       -15.8694    1.9676   41.0587 H       1  ZINC000541568816    0.0700
     38 H38       -15.2468   -0.1338   43.1832 H       1  ZINC000541568816    0.0600
     39 H39       -16.2154   -0.3988   41.7135 H       1  ZINC000541568816    0.0700
     40 H40       -14.4814   -0.0198   41.5803 H       1  ZINC000541568816    0.0600
     41 H41       -12.5772    2.8653   42.4687 H       1  ZINC000541568816    0.1000
     42 H42       -13.3234    2.0563   41.0697 H       1  ZINC000541568816    0.1100
     43 H43       -14.9478    4.8459   42.8226 H       1  ZINC000541568816    0.1300
     44 H44       -15.3728    7.0368   41.7821 H       1  ZINC000541568816    0.1300
     45 H45       -14.3938    7.5683   39.5866 H       1  ZINC000541568816    0.1300
     46 H46       -12.9903    5.9084   38.4296 H       1  ZINC000541568816    0.1300
     47 H47       -12.4622    3.0575   48.9803 H       1  ZINC000541568816    0.1000
     48 H48       -14.0750    3.6712   48.4866 H       1  ZINC000541568816    0.0900
     49 H49       -13.8021    1.1073   49.4283 H       1  ZINC000541568816    0.0900
     50 H50       -14.9163    1.4529   48.0619 H       1  ZINC000541568816    0.0800
     51 H51       -12.0231    0.4390   47.9605 H       1  ZINC000541568816    0.0600
     52 H52       -13.4455   -0.1751   47.0650 H       1  ZINC000541568816    0.0900
@<TRIPOS>BOND
     1     1     2    1
     2     1    28    1
     3     1    29    1
     4     1    30    1
     5     2     3    1
     6     2    31    1
     7     2    32    1
     8     3     4    1
     9     4     5    1
    10     4    23    1
    11     4     6    1
    12     6     7    1
    13     6    33    1
    14     6    34    1
    15     7     8    1
    16     7     9    1
    17     7    23    1
    18     9    10   am
    19     9    35    1
    20    10    11    2
    21    10    12   am
    22    12    13    1
    23    12    15    1
    24    13    14    1
    25    13    36    1
    26    13    37    1
    27    14    38    1
    28    14    39    1
    29    14    40    1
    30    15    16    1
    31    15    41    1
    32    15    42    1
    33    16    21   ar
    34    16    17   ar
    35    17    18   ar
    36    17    43    1
    37    18    19   ar
    38    18    44    1
    39    19    20   ar
    40    19    45    1
    41    20    21   ar
    42    20    46    1
    43    21    22    1
    44    23    27    1
    45    23    24    1
    46    24    25    1
    47    24    47    1
    48    24    48    1
    49    25    26    1
    50    25    49    1
    51    25    50    1
    52    26    27    1
    53    26    51    1
    54    26    52    1
@<TRIPOS>SUBSTRUCTURE
     1 ZINC000541568816        1 TEMP              0 ****  ****    0 ROOT


##########                                Name:    ZINC000762020937
##########                DOCK_Rotatable_Bonds:                  10
##########                         Heavy_Atoms:                  28
##########                    Molecular_Weight:             391.467
##########                DOCK_Rotatable_Bonds:                  10
##########                       Formal_Charge:         -1.8999e-07
##########                     HBond_Acceptors:                   8
##########                        HBond_Donors:                   1
##########                         Heavy_Atoms:                  28
##########                          Grid_Score:          -29.308323
##########                     Grid_vdw_energy:          -29.704075
##########                      Grid_es_energy:            0.395752
##########           Internal_energy_repulsive:           39.846268

@<TRIPOS>MOLECULE
ZINC000762020937
 57 58 1 0 0
SMALL
USER_CHARGES


@<TRIPOS>ATOM
      1 C1        -14.5354   -2.6627   61.4955 C.3     1  ZINC000762020937    0.0200
      2 O2        -13.8880   -2.0592   60.3735 O.3     1  ZINC000762020937   -0.3000
      3 C3        -12.7053   -1.4304   60.6078 C.ar    1  ZINC000762020937    0.1100
      4 C4        -12.6873   -0.1999   61.2438 C.ar    1  ZINC000762020937   -0.1700
      5 C5        -11.4836    0.4380   61.4817 C.ar    1  ZINC000762020937   -0.1000
      6 C6        -10.2968   -0.1493   61.0860 C.ar    1  ZINC000762020937   -0.1000
      7 C7         -8.9878    0.5504   61.3473 C.3     1  ZINC000762020937    0.0200
      8 C8         -8.7159    1.5367   60.2410 C.2     1  ZINC000762020937    0.1900
      9 N9         -8.7214    1.2874   58.9536 N.2     1  ZINC000762020937   -0.4700
     10 C10        -8.4279    2.4565   58.3571 C.2     1  ZINC000762020937    0.1600
     11 C11        -8.3130    2.6969   56.8739 C.3     1  ZINC000762020937    0.2600
     12 H12        -8.3386    3.7686   56.6764 H       1  ZINC000762020937    0.1200
     13 N13        -7.0488    2.1406   56.3855 N.am    1  ZINC000762020937   -0.7100
     14 C14        -5.9466    2.9147   56.3351 C.2     1  ZINC000762020937    0.6600
     15 O15        -6.0011    4.0737   56.6962 O.2     1  ZINC000762020937   -0.5600
     16 O16        -4.7852    2.4039   55.8848 O.3     1  ZINC000762020937   -0.3600
     17 C17        -3.6234    3.2741   55.9231 C.3     1  ZINC000762020937    0.1400
     18 C18        -2.3987    2.5127   55.4118 C.3     1  ZINC000762020937   -0.1800
     19 C19        -3.8716    4.4955   55.0357 C.3     1  ZINC000762020937   -0.1400
     20 C20        -3.3757    3.7311   57.3621 C.3     1  ZINC000762020937   -0.1800
     21 C21        -9.4804    2.0178   56.1551 C.3     1  ZINC000762020937   -0.1000
     22 C22       -10.7861    2.7264   56.5208 C.3     1  ZINC000762020937   -0.1400
     23 C23        -9.2635    2.0966   54.6426 C.3     1  ZINC000762020937   -0.1400
     24 N24        -8.2619    3.3409   59.2946 N.2     1  ZINC000762020937   -0.3700
     25 O25        -8.4286    2.8341   60.3840 O.3     1  ZINC000762020937    0.0900
     26 C26       -10.3076   -1.3778   60.4510 C.ar    1  ZINC000762020937   -0.1500
     27 C27       -11.5095   -2.0245   60.2143 C.ar    1  ZINC000762020937    0.1000
     28 O28       -11.5219   -3.2326   59.5901 O.3     1  ZINC000762020937   -0.3100
     29 C29       -10.7203   -3.3636   58.4143 C.3     1  ZINC000762020937    0.0200
     30 H30       -13.8817   -3.4201   61.9281 H       1  ZINC000762020937    0.0600
     31 H31       -14.7524   -1.8999   62.2434 H       1  ZINC000762020937    0.0600
     32 H32       -15.4660   -3.1283   61.1709 H       1  ZINC000762020937    0.1000
     33 H33       -13.6134    0.2615   61.5535 H       1  ZINC000762020937    0.1400
     34 H34       -11.4710    1.3973   61.9776 H       1  ZINC000762020937    0.1300
     35 H35        -9.0418    1.0781   62.2995 H       1  ZINC000762020937    0.1200
     36 H36        -8.1839   -0.1849   61.3843 H       1  ZINC000762020937    0.1200
     37 H37        -7.0049    1.2150   56.0984 H       1  ZINC000762020937    0.4100
     38 H38        -2.5752    2.1871   54.3867 H       1  ZINC000762020937    0.0600
     39 H39        -1.5267    3.1659   55.4406 H       1  ZINC000762020937    0.0700
     40 H40        -2.2220    1.6425   56.0440 H       1  ZINC000762020937    0.0900
     41 H41        -4.7441    5.0380   55.3999 H       1  ZINC000762020937    0.0700
     42 H42        -2.9995    5.1487   55.0644 H       1  ZINC000762020937    0.0800
     43 H43        -4.0480    4.1699   54.0106 H       1  ZINC000762020937    0.0700
     44 H44        -3.1990    2.8609   57.9943 H       1  ZINC000762020937    0.0900
     45 H45        -2.5036    4.3843   57.3909 H       1  ZINC000762020937    0.0700
     46 H46        -4.2482    4.2735   57.7263 H       1  ZINC000762020937    0.0600
     47 H47        -9.5365    0.9727   56.4601 H       1  ZINC000762020937    0.0800
     48 H48       -10.7301    3.7714   56.2157 H       1  ZINC000762020937    0.0600
     49 H49       -11.6179    2.2426   56.0087 H       1  ZINC000762020937    0.0600
     50 H50       -10.9406    2.6703   57.5982 H       1  ZINC000762020937    0.0500
     51 H51        -8.3333    1.5917   54.3822 H       1  ZINC000762020937    0.0500
     52 H52       -10.0953    1.6127   54.1306 H       1  ZINC000762020937    0.0600
     53 H53        -9.2075    3.1415   54.3376 H       1  ZINC000762020937    0.0700
     54 H54        -9.3787   -1.8345   60.1428 H       1  ZINC000762020937    0.1400
     55 H55        -9.6763   -3.1732   58.6633 H       1  ZINC000762020937    0.0600
     56 H56       -10.8208   -4.3734   58.0167 H       1  ZINC000762020937    0.1000
     57 H57       -11.0524   -2.6439   57.6661 H       1  ZINC000762020937    0.0600
@<TRIPOS>BOND
     1     1     2    1
     2     1    30    1
     3     1    31    1
     4     1    32    1
     5     2     3    1
     6     3    27   ar
     7     3     4   ar
     8     4     5   ar
     9     4    33    1
    10     5     6   ar
    11     5    34    1
    12     6     7    1
    13     6    26   ar
    14     7     8    1
    15     7    35    1
    16     7    36    1
    17     8    25    1
    18     8     9    2
    19     9    10    1
    20    10    11    1
    21    10    24    2
    22    11    12    1
    23    11    13    1
    24    11    21    1
    25    13    14   am
    26    13    37    1
    27    14    15    2
    28    14    16    1
    29    16    17    1
    30    17    18    1
    31    17    19    1
    32    17    20    1
    33    18    38    1
    34    18    39    1
    35    18    40    1
    36    19    41    1
    37    19    42    1
    38    19    43    1
    39    20    44    1
    40    20    45    1
    41    20    46    1
    42    21    22    1
    43    21    23    1
    44    21    47    1
    45    22    48    1
    46    22    49    1
    47    22    50    1
    48    23    51    1
    49    23    52    1
    50    23    53    1
    51    24    25    1
    52    26    27   ar
    53    26    54    1
    54    27    28    1
    55    28    29    1
    56    29    55    1
    57    29    56    1
    58    29    57    1
@<TRIPOS>SUBSTRUCTURE
     1 ZINC000762020937        1 TEMP              0 ****  ****    0 ROOT


##########                                Name:    ZINC001090961577
##########                DOCK_Rotatable_Bonds:                   9
##########                         Heavy_Atoms:                  24
##########                    Molecular_Weight:             352.458
##########                DOCK_Rotatable_Bonds:                   9
##########                       Formal_Charge:                0.02
##########                     HBond_Acceptors:                   8
##########                        HBond_Donors:                   1
##########                         Heavy_Atoms:                  24
##########                          Grid_Score:          -29.293634
##########                     Grid_vdw_energy:          -28.838022
##########                      Grid_es_energy:           -0.455613
##########           Internal_energy_repulsive:           10.421568

@<TRIPOS>MOLECULE
ZINC001090961577
 48 49 1 0 0
SMALL
USER_CHARGES


@<TRIPOS>ATOM
      1 C1          0.1831    1.9149   59.4131 C.3     1  ZINC001090961577   -0.1400
      2 C2         -1.0175    2.2928   58.5432 C.3     1  ZINC001090961577   -0.0900
      3 S3         -0.5857    3.7130   57.5006 S.3     1  ZINC001090961577   -0.2700
      4 C4         -2.0670    3.9334   56.4771 C.3     1  ZINC001090961577   -0.0700
      5 C5         -2.5006    2.5804   55.9095 C.3     1  ZINC001090961577   -0.1200
      6 C6         -3.4313    2.7993   54.7446 C.2     1  ZINC001090961577    0.5400
      7 O7         -2.9875    2.8636   53.6177 O.2     1  ZINC001090961577   -0.5300
      8 N8         -4.7567    2.9237   54.9550 N.am    1  ZINC001090961577   -0.6200
      9 C9         -5.7729    3.1396   53.9147 C.3     1  ZINC001090961577    0.1100
     10 C10        -7.1453    3.1911   54.6185 C.3     1  ZINC001090961577   -0.1100
     11 H11        -7.4412    4.2223   54.8116 H       1  ZINC001090961577    0.0900
     12 C12        -8.2083    2.4721   53.7853 C.3     1  ZINC001090961577   -0.1400
     13 C13        -6.8822    2.4372   55.9487 C.3     1  ZINC001090961577    0.1500
     14 H14        -6.9499    1.3586   55.8065 H       1  ZINC001090961577    0.1200
     15 N15        -7.8028    2.8845   56.9969 N.pl3   1  ZINC001090961577   -0.6700
     16 C16        -8.0829    2.0603   58.0665 C.ar    1  ZINC001090961577    0.5900
     17 N17        -8.9104    2.4893   59.0107 N.ar    1  ZINC001090961577   -0.5700
     18 C18        -9.2040    1.7313   60.0500 C.ar    1  ZINC001090961577    0.2700
     19 C19        -8.6273    0.4574   60.1466 C.ar    1  ZINC001090961577   -0.3000
     20 C20        -8.9270   -0.4238   61.2898 C.2     1  ZINC001090961577    0.5300
     21 O21        -8.1881   -0.4403   62.2543 O.2     1  ZINC001090961577   -0.5100
     22 O22       -10.0203   -1.2110   61.2653 O.3     1  ZINC001090961577   -0.3600
     23 C23       -10.7288   -1.3160   60.0022 C.3     1  ZINC001090961577    0.0400
     24 C24        -7.7587    0.0432   59.1276 C.ar    1  ZINC001090961577    0.2600
     25 N25        -7.5210    0.8594   58.1185 N.ar    1  ZINC001090961577   -0.5700
     26 C26        -5.4283    2.8596   56.2659 C.3     1  ZINC001090961577    0.0900
     27 H27        -0.0764    1.0615   60.0396 H       1  ZINC001090961577    0.0700
     28 H28         1.0266    1.6535   58.7742 H       1  ZINC001090961577    0.0700
     29 H29         0.4544    2.7605   60.0451 H       1  ZINC001090961577    0.0700
     30 H30        -1.2888    1.4472   57.9112 H       1  ZINC001090961577    0.0800
     31 H31        -1.8611    2.5542   59.1821 H       1  ZINC001090961577    0.0800
     32 H32        -2.8711    4.3466   57.0860 H       1  ZINC001090961577    0.0900
     33 H33        -1.8440    4.6166   55.6575 H       1  ZINC001090961577    0.0900
     34 H34        -1.6224    2.0286   55.5742 H       1  ZINC001090961577    0.1000
     35 H35        -3.0147    2.0098   56.6829 H       1  ZINC001090961577    0.1000
     36 H36        -5.5837    4.0824   53.4017 H       1  ZINC001090961577    0.0800
     37 H37        -5.7531    2.3161   53.2007 H       1  ZINC001090961577    0.0800
     38 H38        -7.9080    1.4361   53.6290 H       1  ZINC001090961577    0.0600
     39 H39        -9.1621    2.4984   54.3124 H       1  ZINC001090961577    0.0600
     40 H40        -8.3121    2.9698   52.8212 H       1  ZINC001090961577    0.0700
     41 H41        -8.2154    3.7605   56.9385 H       1  ZINC001090961577    0.4200
     42 H42        -9.8782    2.0873   60.8150 H       1  ZINC001090961577    0.1800
     43 H43       -11.5865   -1.9782   60.1207 H       1  ZINC001090961577    0.1100
     44 H44       -11.0721   -0.3281   59.6950 H       1  ZINC001090961577    0.0700
     45 H45       -10.0596   -1.7204   59.2428 H       1  ZINC001090961577    0.0700
     46 H46        -7.2943   -0.9311   59.1656 H       1  ZINC001090961577    0.1800
     47 H47        -4.9489    2.1186   56.9056 H       1  ZINC001090961577    0.0900
     48 H48        -5.4134    3.8399   56.7422 H       1  ZINC001090961577    0.0800
@<TRIPOS>BOND
     1     1     2    1
     2     1    27    1
     3     1    28    1
     4     1    29    1
     5     2     3    1
     6     2    30    1
     7     2    31    1
     8     3     4    1
     9     4     5    1
    10     4    32    1
    11     4    33    1
    12     5     6    1
    13     5    34    1
    14     5    35    1
    15     6     7    2
    16     6     8   am
    17     8    26    1
    18     8     9    1
    19     9    10    1
    20     9    36    1
    21     9    37    1
    22    10    11    1
    23    10    12    1
    24    10    13    1
    25    12    38    1
    26    12    39    1
    27    12    40    1
    28    13    14    1
    29    13    15    1
    30    13    26    1
    31    15    16    1
    32    15    41    1
    33    16    25   ar
    34    16    17   ar
    35    17    18   ar
    36    18    19   ar
    37    18    42    1
    38    19    20    1
    39    19    24   ar
    40    20    21    2
    41    20    22    1
    42    22    23    1
    43    23    43    1
    44    23    44    1
    45    23    45    1
    46    24    25   ar
    47    24    46    1
    48    26    47    1
    49    26    48    1
@<TRIPOS>SUBSTRUCTURE
     1 ZINC001090961577        1 TEMP              0 ****  ****    0 ROOT


##########                                Name:    ZINC000124554441
##########                DOCK_Rotatable_Bonds:                   9
##########                         Heavy_Atoms:                  26
##########                    Molecular_Weight:             375.898
##########                DOCK_Rotatable_Bonds:                   9
##########                       Formal_Charge:         -0.00999991
##########                     HBond_Acceptors:                   6
##########                        HBond_Donors:                   1
##########                         Heavy_Atoms:                  26
##########                          Grid_Score:          -29.289309
##########                     Grid_vdw_energy:          -28.417698
##########                      Grid_es_energy:           -0.871611
##########           Internal_energy_repulsive:           11.978980

@<TRIPOS>MOLECULE
ZINC000124554441
 52 53 1 0 0
SMALL
USER_CHARGES


@<TRIPOS>ATOM
      1 C1         -1.7629    2.4698   51.0866 C.3     1  ZINC000124554441   -0.1500
      2 C2         -3.1165    2.9305   50.5421 C.3     1  ZINC000124554441   -0.1300
      3 C3         -4.2267    2.4955   51.5007 C.3     1  ZINC000124554441   -0.1200
      4 C4         -5.5719    3.0201   50.9948 C.3     1  ZINC000124554441   -0.1200
      5 C5         -6.6381    2.8127   52.0724 C.3     1  ZINC000124554441   -0.1300
      6 C6         -7.1462    1.3707   52.0163 C.3     1  ZINC000124554441    0.1200
      7 N7         -7.7961    1.0322   53.2849 N.am    1  ZINC000124554441   -0.7300
      8 C8         -9.0767    1.3916   53.5030 C.2     1  ZINC000124554441    0.5200
      9 O9         -9.6904    1.9966   52.6497 O.2     1  ZINC000124554441   -0.5300
     10 C10        -9.7458    1.0418   54.8072 C.3     1  ZINC000124554441   -0.1200
     11 H11        -8.9901    0.7544   55.5382 H       1  ZINC000124554441    0.1000
     12 C12       -10.5217    2.2552   55.3248 C.3     1  ZINC000124554441   -0.1000
     13 C13       -11.1746    1.9114   56.6655 C.3     1  ZINC000124554441   -0.1400
     14 C14       -12.1605    0.7557   56.4673 C.3     1  ZINC000124554441    0.0900
     15 N15       -11.4531   -0.3663   55.8353 N.am    1  ZINC000124554441   -0.6000
     16 C16       -11.4804   -1.5947   56.3889 C.2     1  ZINC000124554441    0.5600
     17 O17       -10.8911   -2.5147   55.8564 O.2     1  ZINC000124554441   -0.5200
     18 C18       -12.2278   -1.8234   57.6449 C.ar    1  ZINC000124554441   -0.0900
     19 C19       -11.6924   -1.3991   58.8626 C.ar    1  ZINC000124554441   -0.0900
     20 C20       -12.3871   -1.6115   60.0326 C.ar    1  ZINC000124554441   -0.0600
     21 C21       -13.6279   -2.2519   60.0019 C.ar    1  ZINC000124554441    0.0100
     22 C22       -14.3504   -2.4728   61.2183 C.1     1  ZINC000124554441    0.2400
     23 N23       -14.9236   -2.6480   62.1834 N.1     1  ZINC000124554441   -0.3800
     24 C24       -14.1644   -2.6771   58.7827 C.ar    1  ZINC000124554441    0.0000
     25 Cl25      -15.7068   -3.4729   58.7428 Cl      1  ZINC000124554441   -0.0400
     26 C26       -13.4706   -2.4584   57.6115 C.ar    1  ZINC000124554441   -0.0600
     27 C27       -10.7149   -0.1242   54.5881 C.3     1  ZINC000124554441    0.1200
     28 H28        -1.5936    2.9178   52.0658 H       1  ZINC000124554441    0.0500
     29 H29        -1.7588    1.3837   51.1784 H       1  ZINC000124554441    0.0500
     30 H30        -0.9720    2.7797   50.4037 H       1  ZINC000124554441    0.0500
     31 H31        -3.1206    4.0167   50.4504 H       1  ZINC000124554441    0.0600
     32 H32        -3.2857    2.4825   49.5629 H       1  ZINC000124554441    0.0600
     33 H33        -4.2570    1.4071   51.5516 H       1  ZINC000124554441    0.0600
     34 H34        -4.0289    2.9002   52.4933 H       1  ZINC000124554441    0.0600
     35 H35        -5.4857    4.0830   50.7689 H       1  ZINC000124554441    0.0700
     36 H36        -5.8570    2.4789   50.0927 H       1  ZINC000124554441    0.0700
     37 H37        -6.2054    3.0075   53.0538 H       1  ZINC000124554441    0.0700
     38 H38        -7.4681    3.4974   51.8989 H       1  ZINC000124554441    0.0700
     39 H39        -7.8638    1.2698   51.2021 H       1  ZINC000124554441    0.0700
     40 H40        -6.3071    0.6961   51.8467 H       1  ZINC000124554441    0.0700
     41 H41        -7.3049    0.5494   53.9679 H       1  ZINC000124554441    0.4000
     42 H42        -9.8379    3.0935   55.4582 H       1  ZINC000124554441    0.0800
     43 H43       -11.2931    2.5273   54.6044 H       1  ZINC000124554441    0.0800
     44 H44       -10.4058    1.6154   57.3793 H       1  ZINC000124554441    0.0700
     45 H45       -11.7076    2.7832   57.0448 H       1  ZINC000124554441    0.0900
     46 H46       -12.5542    0.4414   57.4339 H       1  ZINC000124554441    0.1000
     47 H47       -12.9791    1.0799   55.8249 H       1  ZINC000124554441    0.0800
     48 H48       -10.7326   -0.9044   58.8870 H       1  ZINC000124554441    0.1500
     49 H49       -11.9723   -1.2829   60.9741 H       1  ZINC000124554441    0.1500
     50 H50       -13.8843   -2.7863   56.6694 H       1  ZINC000124554441    0.1500
     51 H51       -11.4153    0.1284   53.7921 H       1  ZINC000124554441    0.0800
     52 H52       -10.1554   -1.0190   54.3150 H       1  ZINC000124554441    0.1000
@<TRIPOS>BOND
     1     1     2    1
     2     1    28    1
     3     1    29    1
     4     1    30    1
     5     2     3    1
     6     2    31    1
     7     2    32    1
     8     3     4    1
     9     3    33    1
    10     3    34    1
    11     4     5    1
    12     4    35    1
    13     4    36    1
    14     5     6    1
    15     5    37    1
    16     5    38    1
    17     6     7    1
    18     6    39    1
    19     6    40    1
    20     7     8   am
    21     7    41    1
    22     8     9    2
    23     8    10    1
    24    10    11    1
    25    10    27    1
    26    10    12    1
    27    12    13    1
    28    12    42    1
    29    12    43    1
    30    13    14    1
    31    13    44    1
    32    13    45    1
    33    14    15    1
    34    14    46    1
    35    14    47    1
    36    15    16   am
    37    15    27    1
    38    16    17    2
    39    16    18    1
    40    18    26   ar
    41    18    19   ar
    42    19    20   ar
    43    19    48    1
    44    20    21   ar
    45    20    49    1
    46    21    22    1
    47    21    24   ar
    48    22    23    3
    49    24    25    1
    50    24    26   ar
    51    26    50    1
    52    27    51    1
    53    27    52    1
@<TRIPOS>SUBSTRUCTURE
     1 ZINC000124554441        1 TEMP              0 ****  ****    0 ROOT


##########                                Name:    ZINC000355549087
##########                DOCK_Rotatable_Bonds:                   9
##########                         Heavy_Atoms:                  23
##########                    Molecular_Weight:             336.415
##########                DOCK_Rotatable_Bonds:                   9
##########                       Formal_Charge:        -9.53674e-07
##########                     HBond_Acceptors:                   8
##########                        HBond_Donors:                   4
##########                         Heavy_Atoms:                  23
##########                          Grid_Score:          -29.253635
##########                     Grid_vdw_energy:          -28.716227
##########                      Grid_es_energy:           -0.537409
##########           Internal_energy_repulsive:           14.230594

@<TRIPOS>MOLECULE
ZINC000355549087
 43 44 1 0 0
SMALL
USER_CHARGES


@<TRIPOS>ATOM
      1 C1          1.8585   -0.4121   47.3562 C.3     1  <0>        -0.1500
      2 C2          2.0112    1.1038   47.2164 C.3     1  <0>        -0.1200
      3 C3          0.6912    1.7852   47.5826 C.3     1  <0>        -0.1000
      4 H4         -0.1348    1.2564   47.1070 H       1  <0>         0.0800
      5 C5          0.7144    3.2362   47.0979 C.3     1  <0>        -0.1500
      6 C6          0.5072    1.7577   49.1013 C.3     1  <0>         0.0900
      7 H7          0.7263    0.7578   49.4758 H       1  <0>         0.1000
      8 O8          1.3968    2.6984   49.7059 O.3     1  <0>        -0.3500
      9 C9          2.3555    2.1087   50.5863 C.3     1  <0>         0.0200
     10 C10        -0.9152    2.1210   49.4416 C.2     1  <0>         0.5100
     11 O11        -1.7145    2.3368   48.5553 O.2     1  <0>        -0.4800
     12 N12        -1.2991    2.2062   50.7307 N.am    1  <0>        -0.6200
     13 C13        -2.6112    2.5396   51.0444 C.2     1  <0>         0.2400
     14 N14        -3.5998    1.7040   51.0708 N.2     1  <0>        -0.5000
     15 C15        -4.7905    2.1928   51.3918 C.2     1  <0>         0.1700
     16 C16        -6.0146    1.3544   51.4624 C.2     1  <0>        -0.1100
     17 C17        -6.1224    0.0487   51.0777 C.2     1  <0>         0.0600
     18 N18        -7.3954   -0.3612   51.2985 N.pl3   1  <0>        -0.5400
     19 C19        -8.1137    0.6863   51.8289 C.2     1  <0>        -0.0600
     20 C20        -9.5302    0.6553   52.2099 C.2     1  <0>         0.5900
     21 N21       -10.3030    1.7431   52.0204 N.am    1  <0>        -0.8600
     22 O22       -10.0073   -0.3527   52.6972 O.2     1  <0>        -0.5300
     23 C23        -7.2740    1.7589   51.9435 C.2     1  <0>        -0.0600
     24 C24        -4.7934    3.5134   51.6480 C.2     1  <0>        -0.3200
     25 S25        -3.1468    4.1093   51.4571 S.3     1  <0>         0.2500
     26 H26         2.7989   -0.8976   47.0953 H       1  <0>         0.0600
     27 H27         1.5961   -0.6575   48.3852 H       1  <0>         0.0600
     28 H28         1.0716   -0.7612   46.6874 H       1  <0>         0.0600
     29 H29         2.7980    1.4529   47.8850 H       1  <0>         0.0600
     30 H30         2.2735    1.3492   46.1873 H       1  <0>         0.0700
     31 H31         1.5405    3.7649   47.5735 H       1  <0>         0.0700
     32 H32         0.8455    3.2557   46.0159 H       1  <0>         0.0600
     33 H33        -0.2260    3.7216   47.3587 H       1  <0>         0.0500
     34 H34         2.9270    2.8948   51.0801 H       1  <0>         0.0900
     35 H35         1.8397    1.5090   51.3361 H       1  <0>         0.0500
     36 H36         3.0313    1.4729   50.0143 H       1  <0>         0.0500
     37 H37        -0.6595    2.0348   51.4396 H       1  <0>         0.4200
     38 H38        -5.3271   -0.5557   50.6668 H       1  <0>         0.1800
     39 H39        -7.7432   -1.2475   51.1129 H       1  <0>         0.4200
     40 H40       -11.2398    1.7222   52.2713 H       1  <0>         0.4000
     41 H41        -9.9224    2.5469   51.6332 H       1  <0>         0.4100
     42 H42        -7.5306    2.7358   52.3258 H       1  <0>         0.1500
     43 H43        -5.6538    4.1040   51.9257 H       1  <0>         0.1800
@<TRIPOS>BOND
     1     1     2    1
     2     1    26    1
     3     1    27    1
     4     1    28    1
     5     2     3    1
     6     2    29    1
     7     2    30    1
     8     3     4    1
     9     3     5    1
    10     3     6    1
    11     5    31    1
    12     5    32    1
    13     5    33    1
    14     6     7    1
    15     6     8    1
    16     6    10    1
    17     8     9    1
    18     9    34    1
    19     9    35    1
    20     9    36    1
    21    10    11    2
    22    10    12   am
    23    12    13    1
    24    12    37    1
    25    13    25    1
    26    13    14    2
    27    14    15    1
    28    15    16    1
    29    15    24    2
    30    16    23    1
    31    16    17    2
    32    17    18    1
    33    17    38    1
    34    18    19    1
    35    18    39    1
    36    19    20    1
    37    19    23    2
    38    20    21   am
    39    20    22    2
    40    21    40    1
    41    21    41    1
    42    23    42    1
    43    24    25    1
    44    24    43    1
@<TRIPOS>SUBSTRUCTURE
     1 <0>         1 TEMP              0 ****  ****    0 ROOT


##########                                Name:    ZINC000654672208
##########                DOCK_Rotatable_Bonds:                   5
##########                         Heavy_Atoms:                  25
##########                    Molecular_Weight:             365.497
##########                DOCK_Rotatable_Bonds:                   5
##########                       Formal_Charge:           0.0100001
##########                     HBond_Acceptors:                   7
##########                        HBond_Donors:                   1
##########                         Heavy_Atoms:                  25
##########                          Grid_Score:          -29.249283
##########                     Grid_vdw_energy:          -28.662359
##########                      Grid_es_energy:           -0.586925
##########           Internal_energy_repulsive:           11.381509

@<TRIPOS>MOLECULE
ZINC000654672208
 52 54 1 0 0
SMALL
USER_CHARGES


@<TRIPOS>ATOM
      1 C1          1.0127    2.3589   46.8257 C.3     1  ZINC000654672208   -0.1100
      2 C2          0.0910    2.5971   47.9938 C.ar    1  ZINC000654672208   -0.1300
      3 C3         -1.2575    2.3141   47.8902 C.ar    1  ZINC000654672208    0.1000
      4 N4         -2.0702    2.5195   48.9084 N.ar    1  ZINC000654672208   -0.4700
      5 C5         -1.6350    2.9988   50.0571 C.ar    1  ZINC000654672208    0.1200
      6 C6         -2.6057    3.2150   51.1894 C.3     1  ZINC000654672208   -0.0900
      7 C7         -4.0036    2.7706   50.7547 C.3     1  ZINC000654672208    0.1500
      8 N8         -4.9659    3.0784   51.8155 N.am    1  ZINC000654672208   -0.7500
      9 C9         -6.2887    3.0100   51.5662 C.2     1  ZINC000654672208    0.7100
     10 O10        -6.6833    2.6929   50.4607 O.2     1  ZINC000654672208   -0.5800
     11 N11        -7.1739    3.2932   52.5421 N.am    1  ZINC000654672208   -0.6300
     12 C12        -6.7118    3.6779   53.8827 C.3     1  ZINC000654672208    0.1300
     13 C13        -7.3763    2.7607   54.9141 C.3     1  ZINC000654672208   -0.1400
     14 C14        -8.8947    2.8125   54.7344 C.3     1  ZINC000654672208   -0.1100
     15 C15        -9.2617    2.3059   53.3345 C.3     1  ZINC000654672208   -0.0600
     16 C16       -10.7843    2.3482   53.1685 C.3     1  ZINC000654672208   -0.1200
     17 C17       -11.2079    1.2323   52.1789 C.3     1  ZINC000654672208   -0.5800
     18 S18       -10.1474   -0.1608   52.7390 S.o2    1  ZINC000654672208    2.3800
     19 O19       -10.6884   -0.7250   53.9256 O.2     1  ZINC000654672208   -0.9300
     20 O20        -9.8328   -0.9954   51.6328 O.2     1  ZINC000654672208   -0.9300
     21 C21        -8.7020    0.8838   53.1583 C.3     1  ZINC000654672208   -0.5800
     22 C22        -8.6183    3.2288   52.2833 C.3     1  ZINC000654672208    0.1200
     23 C23        -0.2989    3.3049   50.2348 C.ar    1  ZINC000654672208   -0.1200
     24 C24         0.1900    3.8519   51.5511 C.3     1  ZINC000654672208   -0.1200
     25 C25         0.5865    3.0977   49.1884 C.ar    1  ZINC000654672208   -0.0800
     26 H26         1.4062    1.3435   46.8744 H       1  ZINC000654672208    0.0700
     27 H27         0.4609    2.4905   45.8948 H       1  ZINC000654672208    0.0700
     28 H28         1.8376    3.0704   46.8627 H       1  ZINC000654672208    0.0700
     29 H29        -1.6506    1.9204   46.9645 H       1  ZINC000654672208    0.1600
     30 H30        -2.2912    2.6306   52.0542 H       1  ZINC000654672208    0.0900
     31 H31        -2.6264    4.2723   51.4535 H       1  ZINC000654672208    0.0900
     32 H32        -4.2859    3.2984   49.8437 H       1  ZINC000654672208    0.0700
     33 H33        -4.0015    1.6969   50.5665 H       1  ZINC000654672208    0.0700
     34 H34        -4.6511    3.3315   52.6974 H       1  ZINC000654672208    0.3900
     35 H35        -5.6287    3.5694   53.9410 H       1  ZINC000654672208    0.1000
     36 H36        -6.9889    4.7131   54.0817 H       1  ZINC000654672208    0.0700
     37 H37        -7.0276    1.7381   54.7697 H       1  ZINC000654672208    0.0700
     38 H38        -7.1172    3.0952   55.9187 H       1  ZINC000654672208    0.0800
     39 H39        -9.3712    2.1822   55.4853 H       1  ZINC000654672208    0.0800
     40 H40        -9.2395    3.8400   54.8509 H       1  ZINC000654672208    0.0800
     41 H41       -11.2629    2.1830   54.1337 H       1  ZINC000654672208    0.1000
     42 H42       -11.0832    3.3197   52.7750 H       1  ZINC000654672208    0.1000
     43 H43       -12.2648    0.9900   52.2902 H       1  ZINC000654672208    0.1400
     44 H44       -10.9776    1.5118   51.1509 H       1  ZINC000654672208    0.1400
     45 H45        -7.9736    0.8628   52.3479 H       1  ZINC000654672208    0.1400
     46 H46        -8.2451    0.5406   54.0864 H       1  ZINC000654672208    0.1400
     47 H47        -9.0535    4.2254   52.3566 H       1  ZINC000654672208    0.0800
     48 H48        -8.7919    2.8241   51.2863 H       1  ZINC000654672208    0.0800
     49 H49         0.4828    3.0273   52.2010 H       1  ZINC000654672208    0.0800
     50 H50         1.0486    4.5009   51.3784 H       1  ZINC000654672208    0.0700
     51 H51        -0.6076    4.4232   52.0259 H       1  ZINC000654672208    0.0700
     52 H52         1.6360    3.3278   49.2985 H       1  ZINC000654672208    0.1300
@<TRIPOS>BOND
     1     1     2    1
     2     1    26    1
     3     1    27    1
     4     1    28    1
     5     2    25   ar
     6     2     3   ar
     7     3     4   ar
     8     3    29    1
     9     4     5   ar
    10     5     6    1
    11     5    23   ar
    12     6     7    1
    13     6    30    1
    14     6    31    1
    15     7     8    1
    16     7    32    1
    17     7    33    1
    18     8     9   am
    19     8    34    1
    20     9    10    2
    21     9    11   am
    22    11    22    1
    23    11    12    1
    24    12    13    1
    25    12    35    1
    26    12    36    1
    27    13    14    1
    28    13    37    1
    29    13    38    1
    30    14    15    1
    31    14    39    1
    32    14    40    1
    33    15    21    1
    34    15    16    1
    35    15    22    1
    36    16    17    1
    37    16    41    1
    38    16    42    1
    39    17    18    1
    40    17    43    1
    41    17    44    1
    42    18    19    2
    43    18    20    2
    44    18    21    1
    45    21    45    1
    46    21    46    1
    47    22    47    1
    48    22    48    1
    49    23    24    1
    50    23    25   ar
    51    24    49    1
    52    24    50    1
    53    24    51    1
    54    25    52    1
@<TRIPOS>SUBSTRUCTURE
     1 ZINC000654672208        1 TEMP              0 ****  ****    0 ROOT


##########                                Name:    ZINC000031496632
##########                DOCK_Rotatable_Bonds:                   8
##########                         Heavy_Atoms:                  30
##########                    Molecular_Weight:             423.539
##########                DOCK_Rotatable_Bonds:                   8
##########                       Formal_Charge:          -0.0100009
##########                     HBond_Acceptors:                   8
##########                        HBond_Donors:                   1
##########                         Heavy_Atoms:                  30
##########                          Grid_Score:          -29.241486
##########                     Grid_vdw_energy:          -27.921116
##########                      Grid_es_energy:           -1.320370
##########           Internal_energy_repulsive:            7.349350

@<TRIPOS>MOLECULE
ZINC000031496632
 55 58 1 0 0
SMALL
USER_CHARGES


@<TRIPOS>ATOM
      1 C1        -11.8445    1.3694   61.6873 C.3     1  ZINC000031496632   -0.1600
      2 C2        -10.4782    1.5708   61.0287 C.3     1  ZINC000031496632    0.1600
      3 C3         -9.4387    0.6968   61.7334 C.3     1  ZINC000031496632   -0.1600
      4 N4        -10.5567    1.1929   59.6155 N.pl3   1  ZINC000031496632   -0.3900
      5 N5        -11.6493    0.5717   59.0028 N.2     1  ZINC000031496632   -0.2300
      6 C6        -11.4005    0.3720   57.7402 C.2     1  ZINC000031496632    0.0800
      7 C7        -10.0621    0.8836   57.4660 C.ar    1  ZINC000031496632   -0.2100
      8 C8         -9.2596    0.9512   56.3214 C.ar    1  ZINC000031496632    0.0100
      9 C9         -8.0024    1.5227   56.4409 C.ar    1  ZINC000031496632    0.0500
     10 N10        -7.1589    1.6157   55.3262 N.am    1  ZINC000031496632   -0.6600
     11 C11        -7.2564    2.6708   54.4933 C.2     1  ZINC000031496632    0.5500
     12 O12        -8.0769    3.5423   54.7094 O.2     1  ZINC000031496632   -0.4900
     13 C13        -6.3691    2.7687   53.3208 C.ar    1  ZINC000031496632   -0.1300
     14 C14        -6.7455    2.1933   52.1045 C.ar    1  ZINC000031496632   -0.0600
     15 C15        -5.9114    2.2882   51.0120 C.ar    1  ZINC000031496632   -0.1400
     16 C16        -4.6985    2.9517   51.1118 C.ar    1  ZINC000031496632   -0.0600
     17 C17        -4.3117    3.5249   52.3055 C.ar    1  ZINC000031496632   -0.1500
     18 C18        -5.1422    3.4458   53.4173 C.ar    1  ZINC000031496632   -0.0600
     19 S19        -4.6516    4.1773   54.9434 S.3     1  ZINC000031496632    0.0900
     20 C20        -3.4894    2.9618   55.6234 C.3     1  ZINC000031496632   -0.2000
     21 C21        -2.8831    3.5022   56.8929 C.2     1  ZINC000031496632    0.5500
     22 O22        -3.4900    4.3163   57.5561 O.2     1  ZINC000031496632   -0.5200
     23 N23        -1.6663    3.0810   57.2909 N.am    1  ZINC000031496632   -0.6200
     24 C24        -0.9637    3.5173   58.5064 C.3     1  ZINC000031496632    0.1000
     25 C25         0.3985    2.7926   58.5335 C.3     1  ZINC000031496632   -0.1300
     26 C26         0.6241    2.4212   57.0441 C.3     1  ZINC000031496632   -0.1300
     27 C27        -0.8221    2.1014   56.5828 C.3     1  ZINC000031496632    0.1000
     28 C28        -7.5859    2.0045   57.6808 C.ar    1  ZINC000031496632    0.1600
     29 N29        -8.3588    1.9290   58.7415 N.ar    1  ZINC000031496632   -0.4900
     30 C30        -9.5735    1.3977   58.6836 C.ar    1  ZINC000031496632    0.3000
     31 H31       -11.7861    1.6505   62.7388 H       1  ZINC000031496632    0.0800
     32 H32       -12.5851    1.9921   61.1853 H       1  ZINC000031496632    0.0600
     33 H33       -12.1358    0.3222   61.6068 H       1  ZINC000031496632    0.0700
     34 H34       -10.1869    2.6181   61.1093 H       1  ZINC000031496632    0.1100
     35 H35        -9.3804    0.9778   62.7849 H       1  ZINC000031496632    0.0800
     36 H36        -9.7301   -0.3506   61.6529 H       1  ZINC000031496632    0.0700
     37 H37        -8.4654    0.8402   61.2643 H       1  ZINC000031496632    0.0600
     38 H38       -12.0651   -0.0897   57.0249 H       1  ZINC000031496632    0.2000
     39 H39        -9.6090    0.5690   55.3736 H       1  ZINC000031496632    0.1500
     40 H40        -6.5046    0.9207   55.1538 H       1  ZINC000031496632    0.4100
     41 H41        -7.6889    1.6745   52.0209 H       1  ZINC000031496632    0.1300
     42 H42        -6.2041    1.8428   50.0726 H       1  ZINC000031496632    0.1300
     43 H43        -4.0519    3.0201   50.2494 H       1  ZINC000031496632    0.1300
     44 H44        -3.3647    4.0395   52.3750 H       1  ZINC000031496632    0.1300
     45 H45        -4.0192    2.0342   55.8401 H       1  ZINC000031496632    0.1100
     46 H46        -2.6998    2.7683   54.8973 H       1  ZINC000031496632    0.1100
     47 H47        -0.8093    4.5960   58.4781 H       1  ZINC000031496632    0.0700
     48 H48        -1.5451    3.2471   59.3879 H       1  ZINC000031496632    0.0700
     49 H49         1.1837    3.4605   58.8877 H       1  ZINC000031496632    0.0900
     50 H50         0.3459    1.8959   59.1509 H       1  ZINC000031496632    0.0800
     51 H51         1.0374    3.2638   56.4896 H       1  ZINC000031496632    0.0800
     52 H52         1.2644    1.5438   56.9529 H       1  ZINC000031496632    0.0900
     53 H53        -1.0941    1.0844   56.8649 H       1  ZINC000031496632    0.0700
     54 H54        -0.9148    2.2349   55.5051 H       1  ZINC000031496632    0.0800
     55 H55        -6.6061    2.4495   57.7721 H       1  ZINC000031496632    0.1700
@<TRIPOS>BOND
     1     1     2    1
     2     1    31    1
     3     1    32    1
     4     1    33    1
     5     2     3    1
     6     2     4    1
     7     2    34    1
     8     3    35    1
     9     3    36    1
    10     3    37    1
    11     4    30    1
    12     4     5    1
    13     5     6    2
    14     6     7    1
    15     6    38    1
    16     7    30   ar
    17     7     8   ar
    18     8     9   ar
    19     8    39    1
    20     9    10    1
    21     9    28   ar
    22    10    11   am
    23    10    40    1
    24    11    12    2
    25    11    13    1
    26    13    18   ar
    27    13    14   ar
    28    14    15   ar
    29    14    41    1
    30    15    16   ar
    31    15    42    1
    32    16    17   ar
    33    16    43    1
    34    17    18   ar
    35    17    44    1
    36    18    19    1
    37    19    20    1
    38    20    21    1
    39    20    45    1
    40    20    46    1
    41    21    22    2
    42    21    23   am
    43    23    27    1
    44    23    24    1
    45    24    25    1
    46    24    47    1
    47    24    48    1
    48    25    26    1
    49    25    49    1
    50    25    50    1
    51    26    27    1
    52    26    51    1
    53    26    52    1
    54    27    53    1
    55    27    54    1
    56    28    29   ar
    57    28    55    1
    58    29    30   ar
@<TRIPOS>SUBSTRUCTURE
     1 ZINC000031496632        1 TEMP              0 ****  ****    0 ROOT


##########                                Name:    ZINC000821214121
##########                DOCK_Rotatable_Bonds:                  10
##########                         Heavy_Atoms:                  23
##########                    Molecular_Weight:             338.434
##########                DOCK_Rotatable_Bonds:                  10
##########                       Formal_Charge:          0.00999954
##########                     HBond_Acceptors:                   9
##########                        HBond_Donors:                   3
##########                         Heavy_Atoms:                  23
##########                          Grid_Score:          -29.236784
##########                     Grid_vdw_energy:          -25.996822
##########                      Grid_es_energy:           -3.239962
##########           Internal_energy_repulsive:            8.921613

@<TRIPOS>MOLECULE
ZINC000821214121
 45 46 1 0 0
SMALL
USER_CHARGES


@<TRIPOS>ATOM
      1 C1        -11.2396   -0.2156   53.3490 C.3     1  ZINC000821214121   -0.1500
      2 C2        -10.5510    1.1325   53.5710 C.3     1  ZINC000821214121    0.0500
      3 N3         -9.2491    0.9169   54.2164 N.3     1  ZINC000821214121   -0.5200
      4 C4         -8.1532    1.3980   53.3646 C.3     1  ZINC000821214121    0.0600
      5 C5         -7.7838    0.3151   52.3487 C.3     1  ZINC000821214121   -0.1200
      6 C6         -6.5926    0.7858   51.5119 C.3     1  ZINC000821214121    0.0800
      7 O7         -6.1080   -0.3003   50.7198 O.3     1  ZINC000821214121   -0.5700
      8 C8         -9.2056    1.5533   55.5396 C.3     1  ZINC000821214121    0.0400
      9 C9        -10.2600    0.9422   56.4260 C.2     1  ZINC000821214121    0.5000
     10 O10       -11.1194    1.6430   56.9180 O.2     1  ZINC000821214121   -0.4800
     11 N11       -10.2484   -0.3827   56.6722 N.am    1  ZINC000821214121   -0.6300
     12 C12       -11.2245   -0.9481   57.4907 C.2     1  ZINC000821214121    0.0800
     13 C13       -11.0480   -1.3099   58.7930 C.2     1  ZINC000821214121   -0.1000
     14 C14        -9.7621   -1.1395   59.5108 C.2     1  ZINC000821214121    0.2900
     15 N15        -8.7603   -1.9997   59.5360 N.2     1  ZINC000821214121   -0.3300
     16 N16        -7.7674   -1.4108   60.3360 N.pl3   1  ZINC000821214121   -0.2900
     17 N17        -8.2221   -0.2700   60.7280 N.2     1  ZINC000821214121    0.0200
     18 N18        -9.3999   -0.0836   60.2476 N.2     1  ZINC000821214121   -0.2900
     19 C19       -12.1846   -1.8546   59.3905 C.2     1  ZINC000821214121   -0.0500
     20 C20       -12.2015   -2.3180   60.8244 C.3     1  ZINC000821214121   -0.1000
     21 C21       -13.2514   -1.9344   58.6025 C.2     1  ZINC000821214121   -0.2400
     22 C22       -14.5912   -2.4844   59.0191 C.3     1  ZINC000821214121   -0.0800
     23 S23       -12.8782   -1.2994   57.0066 S.3     1  ZINC000821214121    0.2600
     24 H24       -10.5749   -0.8757   52.7917 H       1  ZINC000821214121    0.0700
     25 H25       -11.4750   -0.6665   54.3130 H       1  ZINC000821214121    0.0500
     26 H26       -12.1595   -0.0650   52.7840 H       1  ZINC000821214121    0.0600
     27 H27       -10.4032    1.6275   52.6112 H       1  ZINC000821214121    0.0900
     28 H28       -11.1742    1.7580   54.2102 H       1  ZINC000821214121    0.0400
     29 H29        -8.4708    2.2976   52.8375 H       1  ZINC000821214121    0.0400
     30 H30        -7.2855    1.6265   53.9835 H       1  ZINC000821214121    0.0800
     31 H31        -7.5185   -0.6017   52.8751 H       1  ZINC000821214121    0.0800
     32 H32        -8.6348    0.1252   51.6946 H       1  ZINC000821214121    0.0700
     33 H33        -6.9064    1.6001   50.8589 H       1  ZINC000821214121    0.0400
     34 H34        -5.7997    1.1353   52.1731 H       1  ZINC000821214121    0.0500
     35 H35        -5.3456   -0.0760   50.1688 H       1  ZINC000821214121    0.3800
     36 H36        -8.2227    1.3992   55.9848 H       1  ZINC000821214121    0.0700
     37 H37        -9.3934    2.6220   55.4352 H       1  ZINC000821214121    0.1200
     38 H38        -9.5605   -0.9430   56.2798 H       1  ZINC000821214121    0.4200
     39 H39        -6.9020   -1.7914   60.5532 H       1  ZINC000821214121    0.4700
     40 H40       -12.4977   -1.4912   61.4699 H       1  ZINC000821214121    0.0700
     41 H41       -12.9127   -3.1368   60.9332 H       1  ZINC000821214121    0.0700
     42 H42       -11.2063   -2.6612   61.1071 H       1  ZINC000821214121    0.0900
     43 H43       -15.2061   -1.6785   59.4197 H       1  ZINC000821214121    0.0700
     44 H44       -15.0879   -2.9250   58.1547 H       1  ZINC000821214121    0.0700
     45 H45       -14.4486   -3.2474   59.7843 H       1  ZINC000821214121    0.0800
@<TRIPOS>BOND
     1     1     2    1
     2     1    24    1
     3     1    25    1
     4     1    26    1
     5     2     3    1
     6     2    27    1
     7     2    28    1
     8     3     4    1
     9     3     8    1
    10     4     5    1
    11     4    29    1
    12     4    30    1
    13     5     6    1
    14     5    31    1
    15     5    32    1
    16     6     7    1
    17     6    33    1
    18     6    34    1
    19     7    35    1
    20     8     9    1
    21     8    36    1
    22     8    37    1
    23     9    10    2
    24     9    11   am
    25    11    12    1
    26    11    38    1
    27    12    23    1
    28    12    13    2
    29    13    14    1
    30    13    19    1
    31    14    18    1
    32    14    15    2
    33    15    16    1
    34    16    17    1
    35    16    39    1
    36    17    18    2
    37    19    20    1
    38    19    21    2
    39    20    40    1
    40    20    41    1
    41    20    42    1
    42    21    22    1
    43    21    23    1
    44    22    43    1
    45    22    44    1
    46    22    45    1
@<TRIPOS>SUBSTRUCTURE
     1 ZINC000821214121        1 TEMP              0 ****  ****    0 ROOT


##########                                Name:    ZINC001342629575
##########                DOCK_Rotatable_Bonds:                   9
##########                         Heavy_Atoms:                  29
##########                    Molecular_Weight:             396.533
##########                DOCK_Rotatable_Bonds:                   9
##########                       Formal_Charge:         -0.00999976
##########                     HBond_Acceptors:                   6
##########                        HBond_Donors:                   0
##########                         Heavy_Atoms:                  29
##########                          Grid_Score:          -29.231497
##########                     Grid_vdw_energy:          -28.511600
##########                      Grid_es_energy:           -0.719897
##########           Internal_energy_repulsive:           14.871557

@<TRIPOS>MOLECULE
ZINC001342629575
 61 64 1 0 0
SMALL
USER_CHARGES


@<TRIPOS>ATOM
      1 C1        -15.6516    0.5992   54.1538 C.2     1  ZINC001342629575   -0.1800
      2 C2        -15.2877    0.5539   55.4114 C.2     1  ZINC001342629575   -0.1600
      3 C3        -15.5726   -0.6759   56.2345 C.3     1  ZINC001342629575   -0.0800
      4 C4        -14.3889   -1.6403   56.1370 C.3     1  ZINC001342629575    0.0500
      5 H5        -13.9811   -1.6142   55.1265 H       1  ZINC001342629575    0.0900
      6 C6        -13.3231   -1.2284   57.1195 C.2     1  ZINC001342629575    0.2000
      7 N7        -13.5183   -0.6938   58.2916 N.2     1  ZINC001342629575   -0.2700
      8 N8        -12.3911   -0.4677   58.8663 N.2     1  ZINC001342629575   -0.3000
      9 C9        -11.4081   -0.8491   58.0851 C.2     1  ZINC001342629575    0.3400
     10 N10       -10.0534   -0.7631   58.3641 N.3     1  ZINC001342629575   -0.4300
     11 C11        -9.6584   -1.7558   59.3964 C.3     1  ZINC001342629575    0.0400
     12 C12        -8.3382   -1.2070   59.9787 C.3     1  ZINC001342629575   -0.1200
     13 C13        -8.3770    0.3097   59.7000 C.3     1  ZINC001342629575   -0.1200
     14 C14        -9.7174    0.5498   58.9728 C.3     1  ZINC001342629575    0.0700
     15 H15       -10.4879    0.8473   59.6841 H       1  ZINC001342629575    0.0900
     16 C16        -9.5527    1.6168   57.8887 C.3     1  ZINC001342629575    0.1000
     17 H17        -8.7550    1.3283   57.2043 H       1  ZINC001342629575    0.0700
     18 C18        -9.2190    2.9767   58.5387 C.3     1  ZINC001342629575   -0.1400
     19 C19       -10.0393    3.9679   57.6689 C.3     1  ZINC001342629575   -0.1600
     20 C20       -11.2834    3.1066   57.3354 C.3     1  ZINC001342629575    0.0500
     21 O21       -10.7805    1.7696   57.1669 O.3     1  ZINC001342629575   -0.3700
     22 N22       -11.9720   -1.3518   56.9488 N.pl3   1  ZINC001342629575   -0.4600
     23 C23       -11.2744   -1.9007   55.7834 C.3     1  ZINC001342629575    0.1100
     24 C24       -11.0476   -0.7906   54.7552 C.3     1  ZINC001342629575    0.0500
     25 O25       -10.5320   -1.3568   53.5487 O.3     1  ZINC001342629575   -0.3800
     26 C26       -10.2203   -0.3927   52.5411 C.3     1  ZINC001342629575    0.0300
     27 C27       -14.8524   -3.0384   56.4556 C.ar    1  ZINC001342629575   -0.0900
     28 C28       -14.6954   -4.0477   55.5241 C.ar    1  ZINC001342629575   -0.0900
     29 C29       -15.1205   -5.3302   55.8162 C.ar    1  ZINC001342629575   -0.1200
     30 C30       -15.7023   -5.6035   57.0401 C.ar    1  ZINC001342629575   -0.1200
     31 C31       -15.8585   -4.5945   57.9719 C.ar    1  ZINC001342629575   -0.1200
     32 C32       -15.4294   -3.3129   57.6813 C.ar    1  ZINC001342629575   -0.1100
     33 H33       -15.4475    1.4805   53.5640 H       1  ZINC001342629575    0.1000
     34 H34       -16.1519   -0.2465   53.7056 H       1  ZINC001342629575    0.1000
     35 H35       -14.7834    1.3979   55.8583 H       1  ZINC001342629575    0.1000
     36 H36       -15.7232   -0.3896   57.2753 H       1  ZINC001342629575    0.0900
     37 H37       -16.4713   -1.1645   55.8583 H       1  ZINC001342629575    0.0800
     38 H38       -10.4196   -1.8190   60.1739 H       1  ZINC001342629575    0.0600
     39 H39        -9.4961   -2.7330   58.9416 H       1  ZINC001342629575    0.0800
     40 H40        -8.2910   -1.3937   61.0515 H       1  ZINC001342629575    0.0800
     41 H41        -7.4846   -1.6624   59.4766 H       1  ZINC001342629575    0.0800
     42 H42        -8.3490    0.8675   60.6361 H       1  ZINC001342629575    0.0800
     43 H43        -7.5425    0.5988   59.0612 H       1  ZINC001342629575    0.0800
     44 H44        -9.5526    3.0032   59.5760 H       1  ZINC001342629575    0.0900
     45 H45        -8.1523    3.1893   58.4675 H       1  ZINC001342629575    0.0800
     46 H46       -10.3168    4.8544   58.2392 H       1  ZINC001342629575    0.0800
     47 H47        -9.4956    4.2396   56.7641 H       1  ZINC001342629575    0.0800
     48 H48       -11.9990    3.1415   58.1569 H       1  ZINC001342629575    0.0600
     49 H49       -11.7480    3.4542   56.4127 H       1  ZINC001342629575    0.0900
     50 H50       -10.3131   -2.3096   56.0946 H       1  ZINC001342629575    0.1000
     51 H51       -11.8782   -2.6911   55.3375 H       1  ZINC001342629575    0.1100
     52 H52       -11.9932   -0.2901   54.5464 H       1  ZINC001342629575    0.0600
     53 H53       -10.3339   -0.0684   55.1516 H       1  ZINC001342629575    0.0600
     54 H54        -9.8348   -0.9020   51.6578 H       1  ZINC001342629575    0.0900
     55 H55       -11.1210    0.1612   52.2771 H       1  ZINC001342629575    0.0400
     56 H56        -9.4669    0.2980   52.9198 H       1  ZINC001342629575    0.0400
     57 H57       -14.2409   -3.8342   54.5680 H       1  ZINC001342629575    0.1300
     58 H58       -14.9985   -6.1185   55.0883 H       1  ZINC001342629575    0.1200
     59 H59       -16.0352   -6.6053   57.2681 H       1  ZINC001342629575    0.1200
     60 H60       -16.3133   -4.8080   58.9279 H       1  ZINC001342629575    0.1200
     61 H61       -15.5514   -2.5246   58.4094 H       1  ZINC001342629575    0.1200
@<TRIPOS>BOND
     1     1     2    2
     2     1    33    1
     3     1    34    1
     4     2     3    1
     5     2    35    1
     6     3     4    1
     7     3    36    1
     8     3    37    1
     9     4     5    1
    10     4     6    1
    11     4    27    1
    12     6    22    1
    13     6     7    2
    14     7     8    1
    15     8     9    2
    16     9    10    1
    17     9    22    1
    18    10    14    1
    19    10    11    1
    20    11    12    1
    21    11    38    1
    22    11    39    1
    23    12    13    1
    24    12    40    1
    25    12    41    1
    26    13    14    1
    27    13    42    1
    28    13    43    1
    29    14    15    1
    30    14    16    1
    31    16    17    1
    32    16    21    1
    33    16    18    1
    34    18    19    1
    35    18    44    1
    36    18    45    1
    37    19    20    1
    38    19    46    1
    39    19    47    1
    40    20    21    1
    41    20    48    1
    42    20    49    1
    43    22    23    1
    44    23    24    1
    45    23    50    1
    46    23    51    1
    47    24    25    1
    48    24    52    1
    49    24    53    1
    50    25    26    1
    51    26    54    1
    52    26    55    1
    53    26    56    1
    54    27    32   ar
    55    27    28   ar
    56    28    29   ar
    57    28    57    1
    58    29    30   ar
    59    29    58    1
    60    30    31   ar
    61    30    59    1
    62    31    32   ar
    63    31    60    1
    64    32    61    1
@<TRIPOS>SUBSTRUCTURE
     1 ZINC001342629575        1 TEMP              0 ****  ****    0 ROOT


##########                                Name:    ZINC001000186632
##########                DOCK_Rotatable_Bonds:                   7
##########                         Heavy_Atoms:                  23
##########                    Molecular_Weight:             342.379
##########                DOCK_Rotatable_Bonds:                   7
##########                       Formal_Charge:          -0.0100001
##########                     HBond_Acceptors:                  11
##########                        HBond_Donors:                   2
##########                         Heavy_Atoms:                  23
##########                          Grid_Score:          -29.225504
##########                     Grid_vdw_energy:          -28.165741
##########                      Grid_es_energy:           -1.059762
##########           Internal_energy_repulsive:            4.998155

@<TRIPOS>MOLECULE
ZINC001000186632
 41 43 1 0 0
SMALL
USER_CHARGES


@<TRIPOS>ATOM
      1 O1         -4.3045    5.2437   52.7978 O.2     1  ZINC001000186632   -0.5200
      2 C2         -3.7753    4.1525   52.7880 C.2     1  ZINC001000186632    0.5300
      3 C3         -2.5515    3.9010   53.6307 C.3     1  ZINC001000186632   -0.0500
      4 C4         -2.9727    3.5088   55.0236 C.2     1  ZINC001000186632    0.2400
      5 N5         -2.3169    2.7029   55.8167 N.2     1  ZINC001000186632   -0.3000
      6 N6         -3.0564    2.6151   57.0075 N.pl3   1  ZINC001000186632   -0.4800
      7 C7         -4.1365    3.3978   56.8409 C.2     1  ZINC001000186632    0.2700
      8 N8         -4.0708    3.9318   55.6484 N.2     1  ZINC001000186632   -0.5400
      9 N9         -4.2848    3.1631   52.0277 N.am    1  ZINC001000186632   -0.7100
     10 C10        -5.4744    3.4076   51.2084 C.3     1  ZINC001000186632    0.1100
     11 C11        -5.9119    2.1912   50.3723 C.3     1  ZINC001000186632    0.1000
     12 N12        -6.7544    1.8266   51.5279 N.am    1  ZINC001000186632   -0.6500
     13 C13        -7.2740    0.6725   51.9912 C.2     1  ZINC001000186632    0.5100
     14 O14        -7.0662   -0.3664   51.4007 O.2     1  ZINC001000186632   -0.5100
     15 C15        -8.1131    0.6728   53.2430 C.3     1  ZINC001000186632    0.1500
     16 N16        -9.5250    0.8284   52.8844 N.am    1  ZINC001000186632   -0.9800
     17 C17       -10.2240    2.0971   52.6298 C.3     1  ZINC001000186632    0.0800
     18 C18       -11.3783    1.8753   51.6339 C.3     1  ZINC001000186632   -0.1300
     19 C19       -12.0837    0.5855   52.1442 C.3     1  ZINC001000186632   -0.6000
     20 S20       -10.6353   -0.4026   52.6823 S.o2    1  ZINC001000186632    2.5700
     21 O21       -10.1287   -1.1959   51.6177 O.2     1  ZINC001000186632   -0.9400
     22 O22       -10.8305   -0.9351   53.9852 O.2     1  ZINC001000186632   -0.9600
     23 C23        -6.7996    3.2331   51.9723 C.3     1  ZINC001000186632    0.0900
     24 H24        -1.9648    3.0957   53.1884 H       1  ZINC001000186632    0.1300
     25 H25        -1.9484    4.8078   53.6753 H       1  ZINC001000186632    0.1200
     26 H26        -2.8324    2.0930   57.7938 H       1  ZINC001000186632    0.4400
     27 H27        -4.9199    3.5603   57.5664 H       1  ZINC001000186632    0.2200
     28 H28        -3.8637    2.2893   52.0229 H       1  ZINC001000186632    0.4100
     29 H29        -5.4150    4.3351   50.6389 H       1  ZINC001000186632    0.1200
     30 H30        -6.4800    2.4531   49.4797 H       1  ZINC001000186632    0.1000
     31 H31        -5.1080    1.4825   50.1738 H       1  ZINC001000186632    0.0900
     32 H32        -7.9747   -0.2693   53.7734 H       1  ZINC001000186632    0.1100
     33 H33        -7.8080    1.4994   53.8847 H       1  ZINC001000186632    0.1100
     34 H34       -10.6248    2.4831   53.5671 H       1  ZINC001000186632    0.0800
     35 H35        -9.5216    2.8193   52.2138 H       1  ZINC001000186632    0.0900
     36 H36       -12.0669    2.7198   51.6543 H       1  ZINC001000186632    0.1100
     37 H37       -10.9892    1.7238   50.6270 H       1  ZINC001000186632    0.1000
     38 H38       -12.7475    0.8047   52.9805 H       1  ZINC001000186632    0.1400
     39 H39       -12.6209    0.0856   51.3382 H       1  ZINC001000186632    0.1400
     40 H40        -6.7043    3.3563   53.0511 H       1  ZINC001000186632    0.0900
     41 H41        -7.6284    3.8011   51.5496 H       1  ZINC001000186632    0.1100
@<TRIPOS>BOND
     1     1     2    2
     2     2     3    1
     3     2     9   am
     4     3     4    1
     5     3    24    1
     6     3    25    1
     7     4     8    1
     8     4     5    2
     9     5     6    1
    10     6     7    1
    11     6    26    1
    12     7     8    2
    13     7    27    1
    14     9    10    1
    15     9    28    1
    16    10    23    1
    17    10    11    1
    18    10    29    1
    19    11    12    1
    20    11    30    1
    21    11    31    1
    22    12    13   am
    23    12    23    1
    24    13    14    2
    25    13    15    1
    26    15    16    1
    27    15    32    1
    28    15    33    1
    29    16    20   am
    30    16    17    1
    31    17    18    1
    32    17    34    1
    33    17    35    1
    34    18    19    1
    35    18    36    1
    36    18    37    1
    37    19    20    1
    38    19    38    1
    39    19    39    1
    40    20    21    2
    41    20    22    2
    42    23    40    1
    43    23    41    1
@<TRIPOS>SUBSTRUCTURE
     1 ZINC001000186632        1 TEMP              0 ****  ****    0 ROOT


##########                                Name:    ZINC000470948647
##########                DOCK_Rotatable_Bonds:                   6
##########                         Heavy_Atoms:                  29
##########                    Molecular_Weight:             412.556
##########                DOCK_Rotatable_Bonds:                   6
##########                       Formal_Charge:           0.0100001
##########                     HBond_Acceptors:                   7
##########                        HBond_Donors:                   1
##########                         Heavy_Atoms:                  29
##########                          Grid_Score:          -29.187078
##########                     Grid_vdw_energy:          -28.695862
##########                      Grid_es_energy:           -0.491217
##########           Internal_energy_repulsive:           17.192163

@<TRIPOS>MOLECULE
ZINC000470948647
 57 60 1 0 0
SMALL
USER_CHARGES


@<TRIPOS>ATOM
      1 C1        -16.1137   -3.7007   58.5298 C.3     1  ZINC000470948647   -0.1100
      2 C2        -14.8335   -2.9753   58.8550 C.ar    1  ZINC000470948647   -0.1000
      3 C3        -14.6949   -2.3319   60.0709 C.ar    1  ZINC000470948647   -0.1100
      4 C4        -13.5227   -1.6660   60.3719 C.ar    1  ZINC000470948647   -0.1100
      5 C5        -12.4829   -1.6435   59.4521 C.ar    1  ZINC000470948647    0.1400
      6 N6        -11.2940   -0.9703   59.7542 N.am    1  ZINC000470948647   -0.6700
      7 C7        -11.3126    0.3561   59.9926 C.2     1  ZINC000470948647    0.5100
      8 O8        -12.3599    0.9662   59.9454 O.2     1  ZINC000470948647   -0.4800
      9 C9        -10.0322    1.0813   60.3179 C.3     1  ZINC000470948647    0.1200
     10 H10       -10.2777    2.0829   60.6707 H       1  ZINC000470948647    0.1200
     11 C11        -9.3039    0.3206   61.4492 C.3     1  ZINC000470948647   -0.0700
     12 S12        -8.0848   -0.6732   60.4905 S.3     1  ZINC000470948647   -0.2500
     13 C13        -7.8913    0.6000   59.1754 C.3     1  ZINC000470948647    0.1600
     14 N14        -9.2374    1.1944   59.1045 N.am    1  ZINC000470948647   -0.6000
     15 C15        -9.7010    1.8034   57.9950 C.2     1  ZINC000470948647    0.6300
     16 O16       -10.8193    2.2800   57.9856 O.2     1  ZINC000470948647   -0.5100
     17 C17        -8.8503    1.8917   56.7908 C.2     1  ZINC000470948647   -0.0100
     18 N18        -7.6353    2.3984   56.7241 N.2     1  ZINC000470948647   -0.2700
     19 N19        -7.1878    2.3143   55.5229 N.pl3   1  ZINC000470948647   -0.2700
     20 C20        -5.8695    2.7800   55.0854 C.3     1  ZINC000470948647    0.1500
     21 C21        -5.9201    3.1292   53.5966 C.3     1  ZINC000470948647   -0.1300
     22 C22        -4.5433    3.6158   53.1398 C.3     1  ZINC000470948647   -0.1200
     23 C23        -4.1492    4.8576   53.9418 C.3     1  ZINC000470948647   -0.1300
     24 C24        -4.0986    4.5084   55.4306 C.3     1  ZINC000470948647   -0.1200
     25 C25        -5.4753    4.0219   55.8875 C.3     1  ZINC000470948647   -0.1300
     26 C26        -8.1071    1.7346   54.7216 C.2     1  ZINC000470948647   -0.0100
     27 C27        -9.1823    1.4427   55.4906 C.2     1  ZINC000470948647   -0.1700
     28 C28       -12.6251   -2.2912   58.2316 C.ar    1  ZINC000470948647   -0.1100
     29 C29       -11.4988   -2.2697   57.2306 C.3     1  ZINC000470948647   -0.1100
     30 C30       -13.7976   -2.9592   57.9387 C.ar    1  ZINC000470948647   -0.1000
     31 H31       -16.0411   -4.7347   58.8673 H       1  ZINC000470948647    0.0700
     32 H32       -16.9468   -3.2115   59.0344 H       1  ZINC000470948647    0.0700
     33 H33       -16.2790   -3.6810   57.4526 H       1  ZINC000470948647    0.0700
     34 H34       -15.5040   -2.3498   60.7859 H       1  ZINC000470948647    0.1200
     35 H35       -13.4153   -1.1630   61.3216 H       1  ZINC000470948647    0.1400
     36 H36       -10.4564   -1.4581   59.7920 H       1  ZINC000470948647    0.4100
     37 H37        -8.8006    1.0120   62.1250 H       1  ZINC000470948647    0.1200
     38 H38        -9.9931   -0.3246   61.9940 H       1  ZINC000470948647    0.1200
     39 H39        -7.1522    1.3467   59.4659 H       1  ZINC000470948647    0.1000
     40 H40        -7.6224    0.1373   58.2257 H       1  ZINC000470948647    0.1400
     41 H41        -5.1333    1.9931   55.2491 H       1  ZINC000470948647    0.1100
     42 H42        -6.2009    2.2445   53.0253 H       1  ZINC000470948647    0.0800
     43 H43        -6.6563    3.9163   53.4329 H       1  ZINC000470948647    0.0800
     44 H44        -3.8072    2.8288   53.3035 H       1  ZINC000470948647    0.0700
     45 H45        -4.5795    3.8645   52.0791 H       1  ZINC000470948647    0.0800
     46 H46        -3.1684    5.2042   53.6164 H       1  ZINC000470948647    0.0700
     47 H47        -4.8854    5.6447   53.7781 H       1  ZINC000470948647    0.0700
     48 H48        -3.3624    3.7214   55.5943 H       1  ZINC000470948647    0.0700
     49 H49        -3.8178    5.3932   56.0019 H       1  ZINC000470948647    0.0700
     50 H50        -6.2116    4.8089   55.7237 H       1  ZINC000470948647    0.0700
     51 H51        -5.4393    3.7732   56.9481 H       1  ZINC000470948647    0.0700
     52 H52        -8.0023    1.5363   53.6651 H       1  ZINC000470948647    0.1800
     53 H53       -10.1025    0.9729   55.1763 H       1  ZINC000470948647    0.1600
     54 H54       -10.8448   -3.1248   57.4012 H       1  ZINC000470948647    0.0700
     55 H55       -11.9083   -2.3212   56.2218 H       1  ZINC000470948647    0.0700
     56 H56       -10.9287   -1.3478   57.3448 H       1  ZINC000470948647    0.0600
     57 H57       -13.9087   -3.4632   56.9901 H       1  ZINC000470948647    0.1300
@<TRIPOS>BOND
     1     1     2    1
     2     1    31    1
     3     1    32    1
     4     1    33    1
     5     2    30   ar
     6     2     3   ar
     7     3     4   ar
     8     3    34    1
     9     4     5   ar
    10     4    35    1
    11     5     6    1
    12     5    28   ar
    13     6     7   am
    14     6    36    1
    15     7     8    2
    16     7     9    1
    17     9    10    1
    18     9    14    1
    19     9    11    1
    20    11    12    1
    21    11    37    1
    22    11    38    1
    23    12    13    1
    24    13    14    1
    25    13    39    1
    26    13    40    1
    27    14    15   am
    28    15    16    2
    29    15    17    1
    30    17    27    1
    31    17    18    2
    32    18    19    1
    33    19    20    1
    34    19    26    1
    35    20    25    1
    36    20    21    1
    37    20    41    1
    38    21    22    1
    39    21    42    1
    40    21    43    1
    41    22    23    1
    42    22    44    1
    43    22    45    1
    44    23    24    1
    45    23    46    1
    46    23    47    1
    47    24    25    1
    48    24    48    1
    49    24    49    1
    50    25    50    1
    51    25    51    1
    52    26    27    2
    53    26    52    1
    54    27    53    1
    55    28    29    1
    56    28    30   ar
    57    29    54    1
    58    29    55    1
    59    29    56    1
    60    30    57    1
@<TRIPOS>SUBSTRUCTURE
     1 ZINC000470948647        1 TEMP              0 ****  ****    0 ROOT


##########                                Name:    ZINC000671418508
##########                DOCK_Rotatable_Bonds:                   9
##########                         Heavy_Atoms:                  28
##########                    Molecular_Weight:             405.884
##########                DOCK_Rotatable_Bonds:                   9
##########                       Formal_Charge:         -1.3411e-07
##########                     HBond_Acceptors:                   9
##########                        HBond_Donors:                   2
##########                         Heavy_Atoms:                  28
##########                          Grid_Score:          -29.178860
##########                     Grid_vdw_energy:          -27.921949
##########                      Grid_es_energy:           -1.256911
##########           Internal_energy_repulsive:           15.111259

@<TRIPOS>MOLECULE
ZINC000671418508
 52 54 1 0 0
SMALL
USER_CHARGES


@<TRIPOS>ATOM
      1 C1        -12.8734    2.3735   44.9232 C.3     1  ZINC000671418508    0.1000
      2 N2        -12.9580    2.4310   46.3847 N.pl3   1  ZINC000671418508   -0.3700
      3 C3        -13.1356    1.3794   47.2116 C.2     1  ZINC000671418508    0.0800
      4 C4        -13.1586    1.8511   48.4796 C.2     1  ZINC000671418508   -0.2700
      5 C5        -13.3347    1.0271   49.7291 C.3     1  ZINC000671418508    0.2000
      6 N6        -12.0205    0.6401   50.2481 N.am    1  ZINC000671418508   -0.6900
      7 C7        -11.8738    0.3375   51.5533 C.2     1  ZINC000671418508    0.5100
      8 O8        -12.8300    0.3870   52.2987 O.2     1  ZINC000671418508   -0.5100
      9 C9        -10.5336   -0.0590   52.0823 C.2     1  ZINC000671418508    0.5100
     10 O10       -10.2878   -1.2275   52.2981 O.2     1  ZINC000671418508   -0.5200
     11 N11        -9.5977    0.8815   52.3199 N.am    1  ZINC000671418508   -0.5800
     12 C12        -9.8768    2.3040   52.0711 C.3     1  ZINC000671418508    0.0800
     13 C13        -9.5094    3.0992   53.3284 C.3     1  ZINC000671418508    0.0400
     14 N14        -8.1234    2.7954   53.7085 N.3     1  ZINC000671418508   -0.5200
     15 C15        -7.6758    3.6642   54.8052 C.3     1  ZINC000671418508    0.1300
     16 H16        -8.2686    3.4588   55.6966 H       1  ZINC000671418508    0.0600
     17 C17        -7.8540    5.1290   54.4007 C.3     1  ZINC000671418508    0.0900
     18 O18        -6.9236    5.9389   55.1220 O.3     1  ZINC000671418508   -0.5500
     19 C19        -6.2216    3.3969   55.0963 C.ar    1  ZINC000671418508   -0.0800
     20 C20        -5.3095    3.3347   54.0594 C.ar    1  ZINC000671418508   -0.0600
     21 C21        -3.9755    3.0895   54.3258 C.ar    1  ZINC000671418508   -0.1200
     22 C22        -3.5532    2.9063   55.6305 C.ar    1  ZINC000671418508   -0.0300
     23 Cl23       -1.8780    2.5989   55.9659 Cl      1  ZINC000671418508   -0.0700
     24 C24        -4.4665    2.9687   56.6679 C.ar    1  ZINC000671418508   -0.1200
     25 C25        -5.7993    3.2195   56.4007 C.ar    1  ZINC000671418508   -0.1100
     26 C26        -7.9662    1.3782   54.0619 C.3     1  ZINC000671418508    0.0400
     27 C27        -8.2724    0.5131   52.8404 C.3     1  ZINC000671418508    0.1100
     28 C28       -12.9890    3.2384   48.4259 C.2     1  ZINC000671418508    0.0700
     29 N29       -12.8626    3.5864   47.1709 N.2     1  ZINC000671418508   -0.2900
     30 H30       -11.8346    2.2323   44.6247 H       1  ZINC000671418508    0.0800
     31 H31       -13.4732    1.5403   44.5571 H       1  ZINC000671418508    0.0900
     32 H32       -13.2494    3.3053   44.5006 H       1  ZINC000671418508    0.0900
     33 H33       -13.2411    0.3464   46.9144 H       1  ZINC000671418508    0.1800
     34 H34       -13.8634    1.6143   50.4800 H       1  ZINC000671418508    0.0800
     35 H35       -13.9111    0.1319   49.4957 H       1  ZINC000671418508    0.0800
     36 H36       -11.2558    0.6018   49.6525 H       1  ZINC000671418508    0.4100
     37 H37        -9.2785    2.6528   51.2294 H       1  ZINC000671418508    0.0800
     38 H38       -10.9361    2.4361   51.8507 H       1  ZINC000671418508    0.1400
     39 H39        -9.6055    4.1657   53.1251 H       1  ZINC000671418508    0.0900
     40 H40       -10.1790    2.8220   54.1427 H       1  ZINC000671418508    0.0400
     41 H41        -7.6747    5.2348   53.3307 H       1  ZINC000671418508    0.0500
     42 H42        -8.8700    5.4489   54.6322 H       1  ZINC000671418508    0.0500
     43 H43        -6.2493    5.4346   55.5974 H       1  ZINC000671418508    0.3800
     44 H44        -5.6392    3.4773   53.0409 H       1  ZINC000671418508    0.1400
     45 H45        -3.2631    3.0405   53.5156 H       1  ZINC000671418508    0.1300
     46 H46        -4.1376    2.8254   57.6865 H       1  ZINC000671418508    0.1300
     47 H47        -6.5123    3.2686   57.2104 H       1  ZINC000671418508    0.1300
     48 H48        -6.9429    1.1967   54.3906 H       1  ZINC000671418508    0.0900
     49 H49        -8.6572    1.1251   54.8659 H       1  ZINC000671418508    0.0400
     50 H50        -8.2690   -0.5387   53.1265 H       1  ZINC000671418508    0.1000
     51 H51        -7.5213    0.6882   52.0701 H       1  ZINC000671418508    0.0800
     52 H52       -12.9621    3.9064   49.2740 H       1  ZINC000671418508    0.1900
@<TRIPOS>BOND
     1     1     2    1
     2     1    30    1
     3     1    31    1
     4     1    32    1
     5     2    29    1
     6     2     3    1
     7     3     4    2
     8     3    33    1
     9     4     5    1
    10     4    28    1
    11     5     6    1
    12     5    34    1
    13     5    35    1
    14     6     7   am
    15     6    36    1
    16     7     8    2
    17     7     9    1
    18     9    10    2
    19     9    11   am
    20    11    27    1
    21    11    12    1
    22    12    13    1
    23    12    37    1
    24    12    38    1
    25    13    14    1
    26    13    39    1
    27    13    40    1
    28    14    15    1
    29    14    26    1
    30    15    16    1
    31    15    17    1
    32    15    19    1
    33    17    18    1
    34    17    41    1
    35    17    42    1
    36    18    43    1
    37    19    25   ar
    38    19    20   ar
    39    20    21   ar
    40    20    44    1
    41    21    22   ar
    42    21    45    1
    43    22    23    1
    44    22    24   ar
    45    24    25   ar
    46    24    46    1
    47    25    47    1
    48    26    27    1
    49    26    48    1
    50    26    49    1
    51    27    50    1
    52    27    51    1
    53    28    29    2
    54    28    52    1
@<TRIPOS>SUBSTRUCTURE
     1 ZINC000671418508        1 TEMP              0 ****  ****    0 ROOT


##########                                Name:    ZINC000624498741
##########                DOCK_Rotatable_Bonds:                   7
##########                         Heavy_Atoms:                  27
##########                    Molecular_Weight:             379.339
##########                DOCK_Rotatable_Bonds:                   7
##########                       Formal_Charge:           0.0300003
##########                     HBond_Acceptors:                   9
##########                        HBond_Donors:                   0
##########                         Heavy_Atoms:                  27
##########                          Grid_Score:          -29.165594
##########                     Grid_vdw_energy:          -27.186892
##########                      Grid_es_energy:           -1.978702
##########           Internal_energy_repulsive:           11.250938

@<TRIPOS>MOLECULE
ZINC000624498741
 43 45 1 0 0
SMALL
USER_CHARGES


@<TRIPOS>ATOM
      1 C1         -7.1421    3.0930   51.4098 C.3     1  ZINC000624498741   -0.1100
      2 C2         -6.5667    2.9840   52.7984 C.ar    1  ZINC000624498741   -0.0900
      3 C3         -7.3342    2.4759   53.8230 C.ar    1  ZINC000624498741   -0.0400
      4 C4         -6.7997    2.3750   55.1098 C.ar    1  ZINC000624498741   -0.0500
      5 C5         -7.6188    1.8303   56.2110 C.2     1  ZINC000624498741    0.2300
      6 N6         -7.1784    1.3644   57.3671 N.2     1  ZINC000624498741   -0.4700
      7 C7         -8.2740    0.9832   58.0420 C.2     1  ZINC000624498741    0.1800
      8 C8         -8.3036    0.3823   59.4236 C.3     1  ZINC000624498741   -0.0300
      9 C9         -9.5030   -0.5598   59.5443 C.3     1  ZINC000624498741   -0.1300
     10 C10        -9.3974   -1.3556   60.8469 C.3     1  ZINC000624498741    0.0900
     11 N11        -9.4285   -0.4346   61.9858 N.am    1  ZINC000624498741   -0.5000
     12 C12        -8.2711   -0.1048   62.6139 C.2     1  ZINC000624498741    0.1300
     13 C13        -8.2746    0.7437   63.6685 C.2     1  ZINC000624498741   -0.2300
     14 C14        -9.4828    1.2915   64.1219 C.2     1  ZINC000624498741   -0.0200
     15 C15       -10.6446    0.9592   63.4893 C.2     1  ZINC000624498741   -0.2400
     16 C16       -10.6042    0.0794   62.3942 C.2     1  ZINC000624498741    0.5100
     17 O17       -11.6364   -0.2264   61.8189 O.2     1  ZINC000624498741   -0.5500
     18 N18        -9.3054    1.2269   57.2884 N.2     1  ZINC000624498741   -0.3700
     19 O19        -8.9561    1.7173   56.2356 O.3     1  ZINC000624498741    0.0900
     20 C20        -5.4882    2.7901   55.3517 C.ar    1  ZINC000624498741   -0.0200
     21 C21        -4.7271    3.2973   54.3213 C.ar    1  ZINC000624498741   -0.1900
     22 C22        -5.2606    3.3911   53.0420 C.ar    1  ZINC000624498741    0.1300
     23 O23        -4.5072    3.8916   52.0294 O.3     1  ZINC000624498741   -0.3000
     24 C24        -3.5128    3.0292   51.4731 C.3     1  ZINC000624498741    0.6000
     25 F25        -2.6399    2.6114   52.4834 F       1  ZINC000624498741   -0.1600
     26 F26        -4.1312    1.9128   50.9000 F       1  ZINC000624498741   -0.1300
     27 F27        -2.7936    3.7191   50.4913 F       1  ZINC000624498741   -0.1600
     28 H28        -6.9457    2.1715   50.8617 H       1  ZINC000624498741    0.0800
     29 H29        -8.2181    3.2551   51.4740 H       1  ZINC000624498741    0.0800
     30 H30        -6.6788    3.9311   50.8892 H       1  ZINC000624498741    0.0800
     31 H31        -8.3479    2.1563   53.6320 H       1  ZINC000624498741    0.1500
     32 H32        -7.3839   -0.1765   59.5966 H       1  ZINC000624498741    0.1000
     33 H33        -8.3903    1.1776   60.1640 H       1  ZINC000624498741    0.1000
     34 H34       -10.4241    0.0232   59.5485 H       1  ZINC000624498741    0.0800
     35 H35        -9.5119   -1.2471   58.6984 H       1  ZINC000624498741    0.0800
     36 H36       -10.2351   -2.0494   60.9176 H       1  ZINC000624498741    0.1100
     37 H37        -8.4613   -1.9140   60.8566 H       1  ZINC000624498741    0.1000
     38 H38        -7.3376   -0.5239   62.2686 H       1  ZINC000624498741    0.1600
     39 H39        -7.3474    0.9980   64.1606 H       1  ZINC000624498741    0.1500
     40 H40        -9.4935    1.9690   64.9630 H       1  ZINC000624498741    0.1400
     41 H41       -11.5853    1.3711   63.8240 H       1  ZINC000624498741    0.1500
     42 H42        -5.0715    2.7141   56.3452 H       1  ZINC000624498741    0.1500
     43 H43        -3.7130    3.6189   54.5077 H       1  ZINC000624498741    0.1500
@<TRIPOS>BOND
     1     1     2    1
     2     1    28    1
     3     1    29    1
     4     1    30    1
     5     2    22   ar
     6     2     3   ar
     7     3     4   ar
     8     3    31    1
     9     4     5    1
    10     4    20   ar
    11     5    19    1
    12     5     6    2
    13     6     7    1
    14     7     8    1
    15     7    18    2
    16     8     9    1
    17     8    32    1
    18     8    33    1
    19     9    10    1
    20     9    34    1
    21     9    35    1
    22    10    11    1
    23    10    36    1
    24    10    37    1
    25    11    16   am
    26    11    12    1
    27    12    13    2
    28    12    38    1
    29    13    14    1
    30    13    39    1
    31    14    15    2
    32    14    40    1
    33    15    16    1
    34    15    41    1
    35    16    17    2
    36    18    19    1
    37    20    21   ar
    38    20    42    1
    39    21    22   ar
    40    21    43    1
    41    22    23    1
    42    23    24    1
    43    24    25    1
    44    24    26    1
    45    24    27    1
@<TRIPOS>SUBSTRUCTURE
     1 ZINC000624498741        1 TEMP              0 ****  ****    0 ROOT


##########                                Name:    ZINC000450219577
##########                DOCK_Rotatable_Bonds:                   8
##########                         Heavy_Atoms:                  26
##########                    Molecular_Weight:             353.421
##########                DOCK_Rotatable_Bonds:                   8
##########                       Formal_Charge:          -0.0199997
##########                     HBond_Acceptors:                   6
##########                        HBond_Donors:                   1
##########                         Heavy_Atoms:                  26
##########                          Grid_Score:          -29.153868
##########                     Grid_vdw_energy:          -28.652439
##########                      Grid_es_energy:           -0.501428
##########           Internal_energy_repulsive:           36.872162

@<TRIPOS>MOLECULE
ZINC000450219577
 49 51 1 0 0
SMALL
USER_CHARGES


@<TRIPOS>ATOM
      1 C1          1.4629    3.3625   50.0810 C.3     1  ZINC000450219577   -0.1800
      2 C2          0.0403    2.9088   49.7468 C.3     1  ZINC000450219577    0.1200
      3 C3         -0.3352    3.3978   48.3465 C.3     1  ZINC000450219577   -0.1800
      4 C4         -0.0310    1.3811   49.7897 C.3     1  ZINC000450219577   -0.1400
      5 O5         -0.8854    3.4641   50.7178 O.3     1  ZINC000450219577   -0.3400
      6 C6         -2.1821    3.1491   50.5729 C.2     1  ZINC000450219577    0.4700
      7 O7         -2.5308    2.4255   49.6702 O.2     1  ZINC000450219577   -0.5000
      8 C8         -3.2030    3.6977   51.5361 C.3     1  ZINC000450219577    0.2000
      9 H9         -3.5957    4.6392   51.1520 H       1  ZINC000450219577    0.1400
     10 N10        -4.2985    2.7368   51.6864 N.am    1  ZINC000450219577   -0.7100
     11 C11        -5.5493    3.1739   51.9333 C.2     1  ZINC000450219577    0.5800
     12 O12        -5.7681    4.3654   52.0328 O.2     1  ZINC000450219577   -0.5200
     13 C13        -6.6551    2.2043   52.0832 C.ar    1  ZINC000450219577   -0.2500
     14 C14        -6.5952    0.9451   51.4755 C.ar    1  ZINC000450219577    0.1900
     15 N15        -7.6061    0.1092   51.6361 N.ar    1  ZINC000450219577   -0.5100
     16 C16        -8.6583    0.4471   52.3554 C.ar    1  ZINC000450219577    0.3800
     17 C17        -9.7853   -0.5414   52.5086 C.3     1  ZINC000450219577   -0.1100
     18 C18       -10.3596   -0.7461   53.9119 C.3     1  ZINC000450219577   -0.1500
     19 C19       -11.1683    0.0123   52.8575 C.3     1  ZINC000450219577   -0.1500
     20 N20        -8.7556    1.6225   52.9455 N.ar    1  ZINC000450219577   -0.5200
     21 C21        -7.7888    2.5174   52.8417 C.ar    1  ZINC000450219577    0.2200
     22 C22        -2.5541    3.9332   52.8757 C.ar    1  ZINC000450219577   -0.1100
     23 C23        -2.4905    2.9095   53.8024 C.ar    1  ZINC000450219577   -0.1000
     24 C24        -1.8952    3.1255   55.0311 C.ar    1  ZINC000450219577   -0.1200
     25 C25        -1.3633    4.3652   55.3331 C.ar    1  ZINC000450219577   -0.1100
     26 C26        -1.4260    5.3886   54.4060 C.ar    1  ZINC000450219577   -0.1200
     27 C27        -2.0175    5.1714   53.1756 C.ar    1  ZINC000450219577   -0.0800
     28 H28         1.5138    4.4509   50.0504 H       1  ZINC000450219577    0.0800
     29 H29         1.7303    3.0141   51.0785 H       1  ZINC000450219577    0.0600
     30 H30         2.1579    2.9456   49.3521 H       1  ZINC000450219577    0.0700
     31 H31         0.3598    2.9809   47.6176 H       1  ZINC000450219577    0.0700
     32 H32        -1.3485    3.0745   48.1083 H       1  ZINC000450219577    0.0600
     33 H33        -0.2843    4.4862   48.3159 H       1  ZINC000450219577    0.0800
     34 H34         0.2365    1.0327   50.7873 H       1  ZINC000450219577    0.0700
     35 H35        -1.0444    1.0579   49.5516 H       1  ZINC000450219577    0.0700
     36 H36         0.6640    0.9642   49.0608 H       1  ZINC000450219577    0.0800
     37 H37        -4.1238    1.7859   51.6081 H       1  ZINC000450219577    0.4100
     38 H38        -5.7370    0.6613   50.8845 H       1  ZINC000450219577    0.1700
     39 H39        -9.7421   -1.4094   51.8507 H       1  ZINC000450219577    0.1300
     40 H40       -10.6942   -1.7490   54.1774 H       1  ZINC000450219577    0.1000
     41 H41        -9.9223   -0.1658   54.7243 H       1  ZINC000450219577    0.1100
     42 H42       -11.2630    1.0917   52.9762 H       1  ZINC000450219577    0.1000
     43 H43       -12.0349   -0.4915   52.4294 H       1  ZINC000450219577    0.1100
     44 H44        -7.8757    3.4780   53.3277 H       1  ZINC000450219577    0.1800
     45 H45        -2.9061    1.9410   53.5665 H       1  ZINC000450219577    0.1200
     46 H46        -1.8462    2.3259   55.7554 H       1  ZINC000450219577    0.1200
     47 H47        -0.8988    4.5341   56.2934 H       1  ZINC000450219577    0.1300
     48 H48        -1.0107    6.3573   54.6421 H       1  ZINC000450219577    0.1300
     49 H49        -2.0666    5.9710   52.4514 H       1  ZINC000450219577    0.1300
@<TRIPOS>BOND
     1     1     2    1
     2     1    28    1
     3     1    29    1
     4     1    30    1
     5     2     3    1
     6     2     4    1
     7     2     5    1
     8     3    31    1
     9     3    32    1
    10     3    33    1
    11     4    34    1
    12     4    35    1
    13     4    36    1
    14     5     6    1
    15     6     7    2
    16     6     8    1
    17     8     9    1
    18     8    10    1
    19     8    22    1
    20    10    11   am
    21    10    37    1
    22    11    12    2
    23    11    13    1
    24    13    21   ar
    25    13    14   ar
    26    14    15   ar
    27    14    38    1
    28    15    16   ar
    29    16    17    1
    30    16    20   ar
    31    17    19    1
    32    17    18    1
    33    17    39    1
    34    18    19    1
    35    18    40    1
    36    18    41    1
    37    19    42    1
    38    19    43    1
    39    20    21   ar
    40    21    44    1
    41    22    27   ar
    42    22    23   ar
    43    23    24   ar
    44    23    45    1
    45    24    25   ar
    46    24    46    1
    47    25    26   ar
    48    25    47    1
    49    26    27   ar
    50    26    48    1
    51    27    49    1
@<TRIPOS>SUBSTRUCTURE
     1 ZINC000450219577        1 TEMP              0 ****  ****    0 ROOT


##########                                Name:    ZINC000537799672
##########                DOCK_Rotatable_Bonds:                   9
##########                         Heavy_Atoms:                  29
##########                    Molecular_Weight:             401.478
##########                DOCK_Rotatable_Bonds:                   9
##########                       Formal_Charge:        -4.47035e-07
##########                     HBond_Acceptors:                   6
##########                        HBond_Donors:                   1
##########                         Heavy_Atoms:                  29
##########                          Grid_Score:          -29.116693
##########                     Grid_vdw_energy:          -28.476032
##########                      Grid_es_energy:           -0.640660
##########           Internal_energy_repulsive:           17.002769

@<TRIPOS>MOLECULE
ZINC000537799672
 57 59 1 0 0
SMALL
USER_CHARGES


@<TRIPOS>ATOM
      1 C1         -7.9486   -0.0583   62.6783 C.3     1  ZINC000537799672    0.0300
      2 O2         -8.2323    0.1132   61.2882 O.3     1  ZINC000537799672   -0.3800
      3 C3         -9.4360   -0.5252   60.8575 C.3     1  ZINC000537799672    0.1200
      4 H4         -9.4666   -1.5431   61.2462 H       1  ZINC000537799672    0.0900
      5 C5        -10.6248    0.2448   61.3720 C.ar    1  ZINC000537799672   -0.1300
      6 C6        -10.5541    1.6194   61.5015 C.ar    1  ZINC000537799672   -0.0600
      7 C7        -11.6437    2.3266   61.9731 C.ar    1  ZINC000537799672   -0.1500
      8 C8        -12.8067    1.6580   62.3158 C.ar    1  ZINC000537799672    0.1000
      9 F9        -13.8726    2.3484   62.7766 F       1  ZINC000537799672   -0.1400
     10 C10       -12.8766    0.2813   62.1853 C.ar    1  ZINC000537799672   -0.1500
     11 C11       -11.7874   -0.4233   61.7088 C.ar    1  ZINC000537799672   -0.0800
     12 C12        -9.4750   -0.5618   59.3285 C.3     1  ZINC000537799672    0.1600
     13 H13        -8.7897   -1.3279   58.9657 H       1  ZINC000537799672    0.1000
     14 C14        -9.0555    0.8014   58.7749 C.3     1  ZINC000537799672   -0.1600
     15 N15       -10.8354   -0.8724   58.8820 N.am    1  ZINC000537799672   -0.7100
     16 C16       -11.1626   -2.1362   58.5472 C.2     1  ZINC000537799672    0.5600
     17 O17       -10.3296   -3.0186   58.6171 O.2     1  ZINC000537799672   -0.5400
     18 C18       -12.5350   -2.4494   58.0950 C.ar    1  ZINC000537799672   -0.1400
     19 C19       -13.5467   -2.6738   59.0298 C.ar    1  ZINC000537799672   -0.0800
     20 C20       -14.8255   -2.9651   58.6011 C.ar    1  ZINC000537799672   -0.1300
     21 C21       -15.1056   -3.0354   57.2482 C.ar    1  ZINC000537799672   -0.0900
     22 C22       -14.1069   -2.8143   56.3162 C.ar    1  ZINC000537799672   -0.1100
     23 C23       -12.8257   -2.5161   56.7314 C.ar    1  ZINC000537799672   -0.0300
     24 C24       -11.7394   -2.2752   55.7150 C.3     1  ZINC000537799672    0.1100
     25 O25       -11.6793   -0.8819   55.4033 O.3     1  ZINC000537799672   -0.3800
     26 C26       -10.7312   -0.5544   54.3854 C.3     1  ZINC000537799672    0.0900
     27 C27       -11.3367   -0.8450   53.0087 C.3     1  ZINC000537799672   -0.1800
     28 C28       -10.3452   -0.4180   51.9233 C.3     1  ZINC000537799672    0.0600
     29 O29       -10.0369    0.9686   52.0803 O.3     1  ZINC000537799672   -0.3800
     30 C30        -9.4248    1.2922   53.3305 C.3     1  ZINC000537799672    0.0600
     31 C31       -10.3794    0.9338   54.4725 C.3     1  ZINC000537799672   -0.1500
     32 H32        -7.9223   -1.1219   62.9151 H       1  ZINC000537799672    0.0500
     33 H33        -6.9824    0.3897   62.9099 H       1  ZINC000537799672    0.0900
     34 H34        -8.7251    0.4265   63.2700 H       1  ZINC000537799672    0.0400
     35 H35        -9.6467    2.1407   61.2342 H       1  ZINC000537799672    0.1300
     36 H36       -11.5878    3.4004   62.0748 H       1  ZINC000537799672    0.1400
     37 H37       -13.7833   -0.2412   62.4525 H       1  ZINC000537799672    0.1400
     38 H38       -11.8418   -1.4970   61.6066 H       1  ZINC000537799672    0.1300
     39 H39        -8.0823    1.0753   59.1826 H       1  ZINC000537799672    0.0700
     40 H40        -8.9921    0.7484   57.6880 H       1  ZINC000537799672    0.0600
     41 H41        -9.7929    1.5518   59.0597 H       1  ZINC000537799672    0.0700
     42 H42       -11.5005   -0.1685   58.8274 H       1  ZINC000537799672    0.4000
     43 H43       -13.3292   -2.6199   60.0863 H       1  ZINC000537799672    0.1300
     44 H44       -15.6094   -3.1390   59.3235 H       1  ZINC000537799672    0.1300
     45 H45       -16.1081   -3.2641   56.9180 H       1  ZINC000537799672    0.1300
     46 H46       -14.3320   -2.8710   55.2615 H       1  ZINC000537799672    0.1400
     47 H47       -10.7817   -2.5979   56.1233 H       1  ZINC000537799672    0.0800
     48 H48       -11.9573   -2.8411   54.8092 H       1  ZINC000537799672    0.0800
     49 H49        -9.8292   -1.1510   54.5217 H       1  ZINC000537799672    0.0600
     50 H50       -11.5391   -1.9122   52.9176 H       1  ZINC000537799672    0.0800
     51 H51       -12.2654   -0.2861   52.8939 H       1  ZINC000537799672    0.0800
     52 H52        -9.4318   -1.0059   52.0137 H       1  ZINC000537799672    0.0500
     53 H53       -10.7881   -0.5829   50.9411 H       1  ZINC000537799672    0.1000
     54 H54        -8.4994    0.7265   53.4393 H       1  ZINC000537799672    0.0500
     55 H55        -9.2047    2.3592   53.3621 H       1  ZINC000537799672    0.1000
     56 H56       -11.2888    1.5287   54.3872 H       1  ZINC000537799672    0.0800
     57 H57        -9.8972    1.1388   55.4283 H       1  ZINC000537799672    0.0800
@<TRIPOS>BOND
     1     1     2    1
     2     1    32    1
     3     1    33    1
     4     1    34    1
     5     2     3    1
     6     3     4    1
     7     3     5    1
     8     3    12    1
     9     5    11   ar
    10     5     6   ar
    11     6     7   ar
    12     6    35    1
    13     7     8   ar
    14     7    36    1
    15     8     9    1
    16     8    10   ar
    17    10    11   ar
    18    10    37    1
    19    11    38    1
    20    12    13    1
    21    12    14    1
    22    12    15    1
    23    14    39    1
    24    14    40    1
    25    14    41    1
    26    15    16   am
    27    15    42    1
    28    16    17    2
    29    16    18    1
    30    18    23   ar
    31    18    19   ar
    32    19    20   ar
    33    19    43    1
    34    20    21   ar
    35    20    44    1
    36    21    22   ar
    37    21    45    1
    38    22    23   ar
    39    22    46    1
    40    23    24    1
    41    24    25    1
    42    24    47    1
    43    24    48    1
    44    25    26    1
    45    26    31    1
    46    26    27    1
    47    26    49    1
    48    27    28    1
    49    27    50    1
    50    27    51    1
    51    28    29    1
    52    28    52    1
    53    28    53    1
    54    29    30    1
    55    30    31    1
    56    30    54    1
    57    30    55    1
    58    31    56    1
    59    31    57    1
@<TRIPOS>SUBSTRUCTURE
     1 ZINC000537799672        1 TEMP              0 ****  ****    0 ROOT


##########                                Name:    ZINC000444811358
##########                DOCK_Rotatable_Bonds:                  11
##########                         Heavy_Atoms:                  27
##########                    Molecular_Weight:             374.455
##########                DOCK_Rotatable_Bonds:                  11
##########                       Formal_Charge:          0.00999966
##########                     HBond_Acceptors:                   6
##########                        HBond_Donors:                   2
##########                         Heavy_Atoms:                  27
##########                          Grid_Score:          -29.099251
##########                     Grid_vdw_energy:          -28.211998
##########                      Grid_es_energy:           -0.887253
##########           Internal_energy_repulsive:           20.947834

@<TRIPOS>MOLECULE
ZINC000444811358
 54 55 1 0 0
SMALL
USER_CHARGES


@<TRIPOS>ATOM
      1 C1        -15.2440   -4.5917   56.4050 C.3     1  ZINC000444811358   -0.1100
      2 C2        -14.5916   -3.5702   57.3006 C.ar    1  ZINC000444811358   -0.1300
      3 C3        -13.5550   -2.7927   56.8195 C.ar    1  ZINC000444811358   -0.0700
      4 C4        -12.9543   -1.8556   57.6378 C.ar    1  ZINC000444811358   -0.1500
      5 C5        -13.3926   -1.6937   58.9455 C.ar    1  ZINC000444811358    0.1700
      6 N6        -12.7858   -0.7449   59.7756 N.am    1  ZINC000444811358   -0.6800
      7 C7        -11.8004   -1.1170   60.6165 C.2     1  ZINC000444811358    0.5200
      8 O8        -11.4397   -2.2744   60.6537 O.2     1  ZINC000444811358   -0.5000
      9 C9        -11.1468   -0.0950   61.5106 C.3     1  ZINC000444811358    0.0200
     10 N10        -9.7871    0.1802   61.0272 N.3     1  ZINC000444811358   -0.5000
     11 C11        -9.8176    0.9937   59.8045 C.3     1  ZINC000444811358    0.0200
     12 C12        -8.4435    0.9563   59.1326 C.3     1  ZINC000444811358    0.1100
     13 H13        -7.7661    1.6332   59.6530 H       1  ZINC000444811358    0.1200
     14 O14        -7.9230   -0.3734   59.1866 O.3     1  ZINC000444811358   -0.5400
     15 C15        -8.5779    1.3924   57.6721 C.3     1  ZINC000444811358    0.0300
     16 O16        -9.4441    0.4885   56.9830 O.3     1  ZINC000444811358   -0.3000
     17 C17        -9.5431    0.6354   55.6356 C.ar    1  ZINC000444811358    0.1300
     18 C18       -10.3201   -0.2444   54.8960 C.ar    1  ZINC000444811358   -0.2100
     19 C19       -10.4195   -0.0927   53.5265 C.ar    1  ZINC000444811358   -0.0800
     20 C20        -9.7451    0.9346   52.8929 C.ar    1  ZINC000444811358   -0.1600
     21 C21        -8.9697    1.8125   53.6276 C.ar    1  ZINC000444811358   -0.0800
     22 C22        -8.8719    1.6688   54.9981 C.ar    1  ZINC000444811358   -0.1500
     23 C23        -8.9786    0.8266   62.0696 C.3     1  ZINC000444811358    0.0700
     24 C24        -9.8500    1.8088   62.8551 C.3     1  ZINC000444811358   -0.1400
     25 C25        -8.4262   -0.2377   63.0199 C.3     1  ZINC000444811358   -0.1900
     26 C26       -14.4344   -2.4749   59.4279 C.ar    1  ZINC000444811358   -0.1500
     27 C27       -15.0358   -3.4081   58.6027 C.ar    1  ZINC000444811358    0.1200
     28 F28       -16.0494   -4.1690   59.0702 F       1  ZINC000444811358   -0.1300
     29 H29       -16.0744   -4.1295   55.8714 H       1  ZINC000444811358    0.0700
     30 H30       -14.5136   -4.9649   55.6872 H       1  ZINC000444811358    0.0700
     31 H31       -15.6158   -5.4195   57.0088 H       1  ZINC000444811358    0.0700
     32 H32       -13.2138   -2.9183   55.8025 H       1  ZINC000444811358    0.1400
     33 H33       -12.1441   -1.2494   57.2607 H       1  ZINC000444811358    0.1300
     34 H34       -13.0741    0.1808   59.7459 H       1  ZINC000444811358    0.4100
     35 H35       -11.7303    0.8256   61.4972 H       1  ZINC000444811358    0.1300
     36 H36       -11.0993   -0.4804   62.5290 H       1  ZINC000444811358    0.0700
     37 H37       -10.5672    0.5947   59.1212 H       1  ZINC000444811358    0.0500
     38 H38       -10.0695    2.0232   60.0592 H       1  ZINC000444811358    0.1000
     39 H39        -7.8698   -0.7389   60.0804 H       1  ZINC000444811358    0.3700
     40 H40        -8.9950    2.3985   57.6302 H       1  ZINC000444811358    0.0600
     41 H41        -7.5958    1.3863   57.1993 H       1  ZINC000444811358    0.0700
     42 H42       -10.8465   -1.0474   55.3905 H       1  ZINC000444811358    0.1300
     43 H43       -11.0242   -0.7772   52.9503 H       1  ZINC000444811358    0.1200
     44 H44        -9.8239    1.0514   51.8220 H       1  ZINC000444811358    0.1200
     45 H45        -8.4436    2.6139   53.1302 H       1  ZINC000444811358    0.1300
     46 H46        -8.2662    2.3547   55.5716 H       1  ZINC000444811358    0.1300
     47 H47        -8.1515    1.3647   61.6064 H       1  ZINC000444811358    0.0900
     48 H48       -10.5972    1.2563   63.4248 H       1  ZINC000444811358    0.0500
     49 H49        -9.2244    2.3837   63.5379 H       1  ZINC000444811358    0.0600
     50 H50       -10.3491    2.4862   62.1622 H       1  ZINC000444811358    0.0700
     51 H51        -7.8055   -0.9374   62.4603 H       1  ZINC000444811358    0.0500
     52 H52        -7.8263    0.2420   63.7932 H       1  ZINC000444811358    0.0700
     53 H53        -9.2532   -0.7758   63.4830 H       1  ZINC000444811358    0.0600
     54 H54       -14.7771   -2.3515   60.4445 H       1  ZINC000444811358    0.1500
@<TRIPOS>BOND
     1     1     2    1
     2     1    29    1
     3     1    30    1
     4     1    31    1
     5     2    27   ar
     6     2     3   ar
     7     3     4   ar
     8     3    32    1
     9     4     5   ar
    10     4    33    1
    11     5     6    1
    12     5    26   ar
    13     6     7   am
    14     6    34    1
    15     7     8    2
    16     7     9    1
    17     9    10    1
    18     9    35    1
    19     9    36    1
    20    10    11    1
    21    10    23    1
    22    11    12    1
    23    11    37    1
    24    11    38    1
    25    12    13    1
    26    12    14    1
    27    12    15    1
    28    14    39    1
    29    15    16    1
    30    15    40    1
    31    15    41    1
    32    16    17    1
    33    17    22   ar
    34    17    18   ar
    35    18    19   ar
    36    18    42    1
    37    19    20   ar
    38    19    43    1
    39    20    21   ar
    40    20    44    1
    41    21    22   ar
    42    21    45    1
    43    22    46    1
    44    23    24    1
    45    23    25    1
    46    23    47    1
    47    24    48    1
    48    24    49    1
    49    24    50    1
    50    25    51    1
    51    25    52    1
    52    25    53    1
    53    26    27   ar
    54    26    54    1
    55    27    28    1
@<TRIPOS>SUBSTRUCTURE
     1 ZINC000444811358        1 TEMP              0 ****  ****    0 ROOT


##########                                Name:    ZINC001041713551
##########                DOCK_Rotatable_Bonds:                  10
##########                         Heavy_Atoms:                  22
##########                    Molecular_Weight:             330.448
##########                DOCK_Rotatable_Bonds:                  10
##########                       Formal_Charge:          -0.0100006
##########                     HBond_Acceptors:                   7
##########                        HBond_Donors:                   2
##########                         Heavy_Atoms:                  22
##########                          Grid_Score:          -29.096039
##########                     Grid_vdw_energy:          -26.103258
##########                      Grid_es_energy:           -2.992780
##########           Internal_energy_repulsive:            9.857751

@<TRIPOS>MOLECULE
ZINC001041713551
 48 49 1 0 0
SMALL
USER_CHARGES


@<TRIPOS>ATOM
      1 C1         -0.9707    2.3464   56.3184 C.3     1  ZINC001041713551   -0.1500
      2 C2         -2.0135    2.8534   57.3166 C.3     1  ZINC001041713551   -0.1100
      3 C3         -3.3737    2.9582   56.6240 C.3     1  ZINC001041713551   -0.1000
      4 S4         -3.2533    4.1071   55.2254 S.3     1  ZINC001041713551   -0.1800
      5 C5         -3.2517    3.0011   53.7877 C.3     1  ZINC001041713551   -0.1300
      6 C6         -2.8703    3.7800   52.5552 C.2     1  ZINC001041713551    0.5300
      7 O7         -3.4748    4.7907   52.2654 O.2     1  ZINC001041713551   -0.5100
      8 N8         -1.8575    3.3534   51.7750 N.am    1  ZINC001041713551   -0.7300
      9 C9         -1.4856    4.1115   50.5778 C.3     1  ZINC001041713551    0.1000
     10 C10        -1.0789    3.1420   49.4662 C.3     1  ZINC001041713551    0.0900
     11 O11        -2.1975    2.6122   48.7521 O.3     1  ZINC001041713551   -0.5200
     12 C12         0.0429    3.6766   48.5574 C.3     1  ZINC001041713551    0.0900
     13 N13         0.6119    2.3168   48.6294 N.am    1  ZINC001041713551   -0.6400
     14 C14         1.4255    1.5902   47.8377 C.2     1  ZINC001041713551    0.5500
     15 O15         1.7352    0.4624   48.1586 O.2     1  ZINC001041713551   -0.5100
     16 C16         1.9504    2.1793   46.5537 C.3     1  ZINC001041713551    0.0800
     17 H17         2.3851    1.3887   45.9421 H       1  ZINC001041713551    0.0800
     18 C18         3.0217    3.2254   46.8725 C.3     1  ZINC001041713551   -0.1500
     19 C19         3.5071    3.8621   45.5665 C.3     1  ZINC001041713551   -0.1200
     20 C20         2.3076    4.4644   44.8284 C.3     1  ZINC001041713551   -0.1600
     21 C21         1.2640    3.3705   44.5887 C.3     1  ZINC001041713551    0.0600
     22 O22         0.8784    2.7989   45.8404 O.3     1  ZINC001041713551   -0.3600
     23 C23        -0.0677    2.0721   49.9163 C.3     1  ZINC001041713551    0.1200
     24 H24        -0.9000    3.0419   55.4820 H       1  ZINC001041713551    0.0600
     25 H25        -0.0017    2.2718   56.8118 H       1  ZINC001041713551    0.0600
     26 H26        -1.2675    1.3643   55.9502 H       1  ZINC001041713551    0.0600
     27 H27        -2.0842    2.1579   58.1529 H       1  ZINC001041713551    0.0700
     28 H28        -1.7167    3.8355   57.6848 H       1  ZINC001041713551    0.0700
     29 H29        -3.6737    1.9749   56.2617 H       1  ZINC001041713551    0.0800
     30 H30        -4.1153    3.3258   57.3333 H       1  ZINC001041713551    0.0800
     31 H31        -2.5316    2.1986   53.9476 H       1  ZINC001041713551    0.1100
     32 H32        -4.2465    2.5758   53.6553 H       1  ZINC001041713551    0.1100
     33 H33        -1.3748    2.5443   52.0061 H       1  ZINC001041713551    0.4000
     34 H34        -2.3359    4.7078   50.2468 H       1  ZINC001041713551    0.0900
     35 H35        -0.6485    4.7698   50.8101 H       1  ZINC001041713551    0.0900
     36 H36        -2.4243    3.1074   47.9530 H       1  ZINC001041713551    0.3800
     37 H37        -0.2962    3.9588   47.5606 H       1  ZINC001041713551    0.0900
     38 H38         0.6643    4.4383   49.0283 H       1  ZINC001041713551    0.1000
     39 H39         2.5985    3.9953   47.5177 H       1  ZINC001041713551    0.0800
     40 H40         3.8603    2.7460   47.3776 H       1  ZINC001041713551    0.0800
     41 H41         4.2295    4.6472   45.7901 H       1  ZINC001041713551    0.0700
     42 H42         3.9750    3.1013   44.9418 H       1  ZINC001041713551    0.0700
     43 H43         1.8700    5.2594   45.4324 H       1  ZINC001041713551    0.0700
     44 H44         2.6355    4.8712   43.8717 H       1  ZINC001041713551    0.0800
     45 H45         0.3897    3.8025   44.1017 H       1  ZINC001041713551    0.1000
     46 H46         1.6895    2.5955   43.9511 H       1  ZINC001041713551    0.0500
     47 H47         0.5212    2.3626   50.7863 H       1  ZINC001041713551    0.1100
     48 H48        -0.4951    1.0732   50.0045 H       1  ZINC001041713551    0.1000
@<TRIPOS>BOND
     1     1     2    1
     2     1    24    1
     3     1    25    1
     4     1    26    1
     5     2     3    1
     6     2    27    1
     7     2    28    1
     8     3     4    1
     9     3    29    1
    10     3    30    1
    11     4     5    1
    12     5     6    1
    13     5    31    1
    14     5    32    1
    15     6     7    2
    16     6     8   am
    17     8     9    1
    18     8    33    1
    19     9    10    1
    20     9    34    1
    21     9    35    1
    22    10    23    1
    23    10    11    1
    24    10    12    1
    25    11    36    1
    26    12    13    1
    27    12    37    1
    28    12    38    1
    29    13    14   am
    30    13    23    1
    31    14    15    2
    32    14    16    1
    33    16    17    1
    34    16    22    1
    35    16    18    1
    36    18    19    1
    37    18    39    1
    38    18    40    1
    39    19    20    1
    40    19    41    1
    41    19    42    1
    42    20    21    1
    43    20    43    1
    44    20    44    1
    45    21    22    1
    46    21    45    1
    47    21    46    1
    48    23    47    1
    49    23    48    1
@<TRIPOS>SUBSTRUCTURE
     1 ZINC001041713551        1 TEMP              0 ****  ****    0 ROOT


##########                                Name:    ZINC000892389374
##########                DOCK_Rotatable_Bonds:                   6
##########                         Heavy_Atoms:                  25
##########                    Molecular_Weight:             371.383
##########                DOCK_Rotatable_Bonds:                   6
##########                       Formal_Charge:          -0.0199998
##########                     HBond_Acceptors:                   9
##########                        HBond_Donors:                   1
##########                         Heavy_Atoms:                  25
##########                          Grid_Score:          -29.048962
##########                     Grid_vdw_energy:          -28.157484
##########                      Grid_es_energy:           -0.891477
##########           Internal_energy_repulsive:            8.628427

@<TRIPOS>MOLECULE
ZINC000892389374
 41 43 1 0 0
SMALL
USER_CHARGES


@<TRIPOS>ATOM
      1 C1         -5.8149    2.3510   50.4964 C.3     1  ZINC000892389374   -0.1000
      2 C2         -4.9851    2.6102   51.7274 C.ar    1  ZINC000892389374   -0.1800
      3 C3         -5.6007    2.9586   52.9138 C.ar    1  ZINC000892389374   -0.0400
      4 C4         -4.8434    3.1966   54.0448 C.ar    1  ZINC000892389374   -0.2100
      5 C5         -3.4598    3.0867   53.9920 C.ar    1  ZINC000892389374    0.2200
      6 N6         -2.6937    3.3280   55.1380 N.am    1  ZINC000892389374   -0.5700
      7 C7         -2.5575    2.4156   56.2838 C.3     1  ZINC000892389374    0.0600
      8 C8         -1.6156    3.1687   57.2428 C.3     1  ZINC000892389374    0.0400
      9 O9         -1.3227    4.4134   56.5444 O.3     1  ZINC000892389374   -0.3200
     10 C10        -1.9599    4.4255   55.3680 C.2     1  ZINC000892389374    0.6400
     11 O11        -1.8868    5.3507   54.5837 O.2     1  ZINC000892389374   -0.5000
     12 C12        -2.8379    2.7368   52.8020 C.ar    1  ZINC000892389374   -0.2300
     13 C13        -3.6014    2.4928   51.6692 C.ar    1  ZINC000892389374    0.2400
     14 N14        -2.9794    2.1405   50.4694 N.pl3   1  ZINC000892389374   -0.7400
     15 C15        -2.0293    3.0604   49.8391 C.3     1  ZINC000892389374    0.2000
     16 C16        -0.6956    2.3764   49.6835 C.2     1  ZINC000892389374   -0.2400
     17 C17         0.3716    2.5460   50.4698 C.2     1  ZINC000892389374    0.0600
     18 N18         1.4238    1.8316   50.1250 N.2     1  ZINC000892389374   -0.4500
     19 C19         1.3036    1.0685   49.0914 C.2     1  ZINC000892389374    0.0200
     20 C20         2.3909    0.1801   48.5441 C.3     1  ZINC000892389374   -0.0900
     21 C21         2.2993    0.1436   47.0173 C.3     1  ZINC000892389374    0.4600
     22 F22         3.3670   -0.6004   46.5037 F       1  ZINC000892389374   -0.1800
     23 F23         1.0913   -0.4503   46.6366 F       1  ZINC000892389374   -0.1800
     24 F24         2.3562    1.4483   46.5154 F       1  ZINC000892389374   -0.1700
     25 S25        -0.2700    1.2059   48.4371 S.3     1  ZINC000892389374    0.1900
     26 H26        -6.0883    1.2965   50.4579 H       1  ZINC000892389374    0.0700
     27 H27        -6.7186    2.9595   50.5326 H       1  ZINC000892389374    0.0700
     28 H28        -5.2381    2.6095   49.6083 H       1  ZINC000892389374    0.0600
     29 H29        -6.6763    3.0456   52.9574 H       1  ZINC000892389374    0.1300
     30 H30        -5.3279    3.4690   54.9709 H       1  ZINC000892389374    0.1200
     31 H31        -3.5259    2.2445   56.7540 H       1  ZINC000892389374    0.1000
     32 H32        -2.1108    1.4720   55.9707 H       1  ZINC000892389374    0.1000
     33 H33        -2.1161    3.3706   58.1898 H       1  ZINC000892389374    0.1100
     34 H34        -0.7013    2.5983   57.4066 H       1  ZINC000892389374    0.1100
     35 H35        -1.7621    2.6510   52.7584 H       1  ZINC000892389374    0.1600
     36 H36        -3.1764    1.2866   50.0534 H       1  ZINC000892389374    0.4000
     37 H37        -2.4038    3.3539   48.8585 H       1  ZINC000892389374    0.0900
     38 H38        -1.9126    3.9463   50.4635 H       1  ZINC000892389374    0.0800
     39 H39         0.3716    3.2140   51.3185 H       1  ZINC000892389374    0.1800
     40 H40         3.3639    0.5720   48.8405 H       1  ZINC000892389374    0.1300
     41 H41         2.2697   -0.8283   48.9396 H       1  ZINC000892389374    0.1400
@<TRIPOS>BOND
     1     1     2    1
     2     1    26    1
     3     1    27    1
     4     1    28    1
     5     2    13   ar
     6     2     3   ar
     7     3     4   ar
     8     3    29    1
     9     4     5   ar
    10     4    30    1
    11     5     6    1
    12     5    12   ar
    13     6    10   am
    14     6     7    1
    15     7     8    1
    16     7    31    1
    17     7    32    1
    18     8     9    1
    19     8    33    1
    20     8    34    1
    21     9    10    1
    22    10    11    2
    23    12    13   ar
    24    12    35    1
    25    13    14    1
    26    14    15    1
    27    14    36    1
    28    15    16    1
    29    15    37    1
    30    15    38    1
    31    16    25    1
    32    16    17    2
    33    17    18    1
    34    17    39    1
    35    18    19    2
    36    19    20    1
    37    19    25    1
    38    20    21    1
    39    20    40    1
    40    20    41    1
    41    21    22    1
    42    21    23    1
    43    21    24    1
@<TRIPOS>SUBSTRUCTURE
     1 ZINC000892389374        1 TEMP              0 ****  ****    0 ROOT


##########                                Name:    ZINC000373864439
##########                DOCK_Rotatable_Bonds:                   7
##########                         Heavy_Atoms:                  23
##########                    Molecular_Weight:              344.45
##########                DOCK_Rotatable_Bonds:                   7
##########                       Formal_Charge:          -0.0300001
##########                     HBond_Acceptors:                   7
##########                        HBond_Donors:                   1
##########                         Heavy_Atoms:                  23
##########                          Grid_Score:          -29.030052
##########                     Grid_vdw_energy:          -28.512293
##########                      Grid_es_energy:           -0.517760
##########           Internal_energy_repulsive:           22.549622

@<TRIPOS>MOLECULE
ZINC000373864439
 48 49 1 0 0
SMALL
USER_CHARGES


@<TRIPOS>ATOM
      1 C1         -7.1741    2.1292   54.1885 C.3     1  ZINC000373864439   -0.1500
      2 C2         -7.5809    2.9986   52.9969 C.3     1  ZINC000373864439   -0.6300
      3 S3         -6.7177    2.4257   51.5079 S.o2    1  ZINC000373864439    2.6100
      4 O4         -6.9183    1.0314   51.3205 O.2     1  ZINC000373864439   -0.9500
      5 O5         -6.9052    3.3429   50.4388 O.2     1  ZINC000373864439   -0.9600
      6 N6         -5.1106    2.5602   51.8843 N.am    1  ZINC000373864439   -1.1200
      7 C7         -4.0936    2.1794   50.9010 C.3     1  ZINC000373864439    0.1100
      8 C8         -2.8259    3.0039   51.1331 C.3     1  ZINC000373864439    0.0500
      9 N9         -1.7379    2.4741   50.3004 N.3     1  ZINC000373864439   -0.5300
     10 C10        -0.4273    2.8608   50.8384 C.3     1  ZINC000373864439    0.0400
     11 C11         0.6787    2.1740   50.0339 C.3     1  ZINC000373864439   -0.1300
     12 C12         0.5668    2.5887   48.5643 C.3     1  ZINC000373864439    0.1800
     13 F13         0.7555    3.9705   48.4528 F       1  ZINC000373864439   -0.2100
     14 C14         1.6170    1.8703   47.7568 C.ar    1  ZINC000373864439   -0.1500
     15 C15         2.3703    0.8688   48.3376 C.ar    1  ZINC000373864439   -0.0700
     16 C16         3.3345    0.2095   47.5972 C.ar    1  ZINC000373864439   -0.1600
     17 C17         3.5466    0.5504   46.2744 C.ar    1  ZINC000373864439   -0.0700
     18 C18         2.7954    1.5512   45.6886 C.ar    1  ZINC000373864439   -0.2100
     19 C19         1.8240    2.2104   46.4276 C.ar    1  ZINC000373864439    0.1400
     20 O20         1.0837    3.1951   45.8538 O.3     1  ZINC000373864439   -0.3100
     21 C21         1.5490    3.7129   44.6059 C.3     1  ZINC000373864439    0.0200
     22 C22        -0.8241    2.2185   48.0420 C.3     1  ZINC000373864439   -0.1300
     23 C23        -1.8865    2.9041   48.9042 C.3     1  ZINC000373864439    0.0600
     24 H24        -6.0974    2.2033   54.3415 H       1  ZINC000373864439    0.0700
     25 H25        -7.6928    2.4734   55.0832 H       1  ZINC000373864439    0.0800
     26 H26        -7.4422    1.0916   53.9896 H       1  ZINC000373864439    0.0700
     27 H27        -8.6575    2.9244   52.8438 H       1  ZINC000373864439    0.1300
     28 H28        -7.3127    4.0362   53.1958 H       1  ZINC000373864439    0.1300
     29 H29        -4.8427    2.8912   52.7559 H       1  ZINC000373864439    0.4200
     30 H30        -3.8627    1.1196   51.0089 H       1  ZINC000373864439    0.0700
     31 H31        -4.4710    2.3686   49.8960 H       1  ZINC000373864439    0.0900
     32 H32        -3.0146    4.0437   50.8660 H       1  ZINC000373864439    0.0900
     33 H33        -2.5412    2.9446   52.1837 H       1  ZINC000373864439    0.0400
     34 H34        -0.3101    3.9421   50.7671 H       1  ZINC000373864439    0.0400
     35 H35        -0.3592    2.5564   51.8828 H       1  ZINC000373864439    0.0900
     36 H36         1.6516    2.4734   50.4235 H       1  ZINC000373864439    0.0800
     37 H37         0.5703    1.0925   50.1161 H       1  ZINC000373864439    0.1000
     38 H38         2.2066    0.6007   49.3709 H       1  ZINC000373864439    0.1300
     39 H39         3.9230   -0.5728   48.0534 H       1  ZINC000373864439    0.1300
     40 H40         4.3004    0.0343   45.6984 H       1  ZINC000373864439    0.1300
     41 H41         2.9617    1.8173   44.6553 H       1  ZINC000373864439    0.1300
     42 H42         0.8686    4.4906   44.2588 H       1  ZINC000373864439    0.1000
     43 H43         2.5459    4.1342   44.7363 H       1  ZINC000373864439    0.0600
     44 H44         1.5875    2.9092   43.8706 H       1  ZINC000373864439    0.0600
     45 H45        -0.9249    2.5499   47.0084 H       1  ZINC000373864439    0.0800
     46 H46        -0.9561    1.1377   48.0928 H       1  ZINC000373864439    0.1000
     47 H47        -2.8783    2.6311   48.5437 H       1  ZINC000373864439    0.0800
     48 H48        -1.7626    3.9852   48.8419 H       1  ZINC000373864439    0.0400
@<TRIPOS>BOND
     1     1     2    1
     2     1    24    1
     3     1    25    1
     4     1    26    1
     5     2     3    1
     6     2    27    1
     7     2    28    1
     8     3     4    2
     9     3     5    2
    10     3     6   am
    11     6     7    1
    12     6    29    1
    13     7     8    1
    14     7    30    1
    15     7    31    1
    16     8     9    1
    17     8    32    1
    18     8    33    1
    19     9    23    1
    20     9    10    1
    21    10    11    1
    22    10    34    1
    23    10    35    1
    24    11    12    1
    25    11    36    1
    26    11    37    1
    27    12    13    1
    28    12    14    1
    29    12    22    1
    30    14    19   ar
    31    14    15   ar
    32    15    16   ar
    33    15    38    1
    34    16    17   ar
    35    16    39    1
    36    17    18   ar
    37    17    40    1
    38    18    19   ar
    39    18    41    1
    40    19    20    1
    41    20    21    1
    42    21    42    1
    43    21    43    1
    44    21    44    1
    45    22    23    1
    46    22    45    1
    47    22    46    1
    48    23    47    1
    49    23    48    1
@<TRIPOS>SUBSTRUCTURE
     1 ZINC000373864439        1 TEMP              0 ****  ****    0 ROOT


##########                                Name:    ZINC000462219577
##########                DOCK_Rotatable_Bonds:                   8
##########                         Heavy_Atoms:                  31
##########                    Molecular_Weight:             418.539
##########                DOCK_Rotatable_Bonds:                   8
##########                       Formal_Charge:         -0.00999914
##########                     HBond_Acceptors:                   6
##########                        HBond_Donors:                   2
##########                         Heavy_Atoms:                  31
##########                          Grid_Score:          -29.017740
##########                     Grid_vdw_energy:          -29.950556
##########                      Grid_es_energy:            0.932815
##########           Internal_energy_repulsive:           13.664288

@<TRIPOS>MOLECULE
ZINC000462219577
 61 64 1 0 0
SMALL
USER_CHARGES


@<TRIPOS>ATOM
      1 C1         -9.8861    3.1762   62.3831 C.3     1  ZINC000462219577   -0.0700
      2 C2         -9.8735    2.1832   61.2495 C.2     1  ZINC000462219577    0.0800
      3 N3        -10.6876    1.1680   61.1102 N.2     1  ZINC000462219577   -0.2900
      4 N4        -10.3478    0.4927   59.9308 N.pl3   1  ZINC000462219577   -0.3200
      5 C5        -10.9805   -0.6505   59.4231 C.ar    1  ZINC000462219577    0.1500
      6 C6        -10.2385   -1.7904   59.1443 C.ar    1  ZINC000462219577   -0.1100
      7 C7        -10.8648   -2.9152   58.6441 C.ar    1  ZINC000462219577   -0.1000
      8 C8        -12.2294   -2.9066   58.4205 C.ar    1  ZINC000462219577   -0.1200
      9 C9        -12.9711   -1.7727   58.6968 C.ar    1  ZINC000462219577   -0.1000
     10 C10       -12.3514   -0.6471   59.2033 C.ar    1  ZINC000462219577   -0.1300
     11 C11        -9.3015    1.1392   59.3687 C.2     1  ZINC000462219577    0.0900
     12 C12        -8.6076    0.7599   58.0859 C.3     1  ZINC000462219577   -0.0800
     13 C13        -8.1784    2.0275   57.3442 C.3     1  ZINC000462219577    0.1700
     14 H14        -8.3116    2.8918   57.9948 H       1  ZINC000462219577    0.1000
     15 C15        -9.0350    2.1979   56.0879 C.3     1  ZINC000462219577   -0.1600
     16 N16        -6.7684    1.9160   56.9625 N.am    1  ZINC000462219577   -0.7400
     17 C17        -6.0285    3.0284   56.7848 C.2     1  ZINC000462219577    0.7100
     18 O18        -6.5308    4.1243   56.9427 O.2     1  ZINC000462219577   -0.5800
     19 N19        -4.7317    2.9260   56.4320 N.am    1  ZINC000462219577   -0.7400
     20 C20        -3.9270    4.1350   56.2406 C.3     1  ZINC000462219577    0.1600
     21 H21        -4.4798    5.0021   56.6023 H       1  ZINC000462219577    0.1000
     22 C22        -2.6132    4.0045   57.0175 C.3     1  ZINC000462219577   -0.1700
     23 C23        -1.8093    2.8309   56.4515 C.3     1  ZINC000462219577    0.0700
     24 O24        -1.5773    3.0425   55.0575 O.3     1  ZINC000462219577   -0.3700
     25 C25        -2.7694    3.1251   54.2736 C.3     1  ZINC000462219577    0.1400
     26 H26        -3.3418    2.2041   54.3842 H       1  ZINC000462219577    0.0600
     27 C27        -2.4052    3.3195   52.8241 C.ar    1  ZINC000462219577   -0.0900
     28 C28        -1.3968    4.1989   52.4767 C.ar    1  ZINC000462219577   -0.0900
     29 C29        -1.0629    4.3772   51.1472 C.ar    1  ZINC000462219577   -0.1200
     30 C30        -1.7370    3.6758   50.1652 C.ar    1  ZINC000462219577   -0.1200
     31 C31        -2.7449    2.7958   50.5127 C.ar    1  ZINC000462219577   -0.1200
     32 C32        -3.0759    2.6143   51.8425 C.ar    1  ZINC000462219577   -0.1100
     33 C33        -3.6137    4.3117   54.7517 C.3     1  ZINC000462219577   -0.1500
     34 C34        -8.9935    2.1914   60.1618 C.2     1  ZINC000462219577   -0.2600
     35 H35       -10.5444    4.0074   62.1307 H       1  ZINC000462219577    0.0800
     36 H36       -10.2469    2.6890   63.2890 H       1  ZINC000462219577    0.0700
     37 H37        -8.8759    3.5503   62.5495 H       1  ZINC000462219577    0.0800
     38 H38        -9.1726   -1.7974   59.3181 H       1  ZINC000462219577    0.1300
     39 H39       -10.2882   -3.8021   58.4270 H       1  ZINC000462219577    0.1300
     40 H40       -12.7168   -3.7873   58.0290 H       1  ZINC000462219577    0.1300
     41 H41       -14.0365   -1.7688   58.5205 H       1  ZINC000462219577    0.1300
     42 H42       -12.9312    0.2383   59.4190 H       1  ZINC000462219577    0.1300
     43 H43        -7.7288    0.1564   58.3127 H       1  ZINC000462219577    0.0900
     44 H44        -9.2905    0.1861   57.4594 H       1  ZINC000462219577    0.1100
     45 H45        -8.9018    1.3335   55.4373 H       1  ZINC000462219577    0.0600
     46 H46       -10.0840    2.2808   56.3719 H       1  ZINC000462219577    0.0700
     47 H47        -8.7291    3.1009   55.5594 H       1  ZINC000462219577    0.0700
     48 H48        -6.3674    1.0417   56.8377 H       1  ZINC000462219577    0.3900
     49 H49        -4.3313    2.0516   56.3049 H       1  ZINC000462219577    0.3900
     50 H50        -2.0367    4.9239   56.9152 H       1  ZINC000462219577    0.0800
     51 H51        -2.8291    3.8239   58.0705 H       1  ZINC000462219577    0.0800
     52 H52        -0.8544    2.7598   56.9722 H       1  ZINC000462219577    0.1000
     53 H53        -2.3691    1.9061   56.5906 H       1  ZINC000462219577    0.0500
     54 H54        -0.8701    4.7468   53.2440 H       1  ZINC000462219577    0.1300
     55 H55        -0.2754    5.0646   50.8758 H       1  ZINC000462219577    0.1200
     56 H56        -1.4766    3.8156   49.1264 H       1  ZINC000462219577    0.1200
     57 H57        -3.2718    2.2481   49.7453 H       1  ZINC000462219577    0.1200
     58 H58        -3.8634    1.9268   52.1139 H       1  ZINC000462219577    0.1200
     59 H59        -4.5435    4.3493   54.1841 H       1  ZINC000462219577    0.0800
     60 H60        -3.0577    5.2375   54.6037 H       1  ZINC000462219577    0.0900
     61 H61        -8.2032    2.9071   59.9893 H       1  ZINC000462219577    0.1500
@<TRIPOS>BOND
     1     1     2    1
     2     1    35    1
     3     1    36    1
     4     1    37    1
     5     2    34    1
     6     2     3    2
     7     3     4    1
     8     4     5    1
     9     4    11    1
    10     5    10   ar
    11     5     6   ar
    12     6     7   ar
    13     6    38    1
    14     7     8   ar
    15     7    39    1
    16     8     9   ar
    17     8    40    1
    18     9    10   ar
    19     9    41    1
    20    10    42    1
    21    11    12    1
    22    11    34    2
    23    12    13    1
    24    12    43    1
    25    12    44    1
    26    13    14    1
    27    13    15    1
    28    13    16    1
    29    15    45    1
    30    15    46    1
    31    15    47    1
    32    16    17   am
    33    16    48    1
    34    17    18    2
    35    17    19   am
    36    19    20    1
    37    19    49    1
    38    20    21    1
    39    20    33    1
    40    20    22    1
    41    22    23    1
    42    22    50    1
    43    22    51    1
    44    23    24    1
    45    23    52    1
    46    23    53    1
    47    24    25    1
    48    25    26    1
    49    25    27    1
    50    25    33    1
    51    27    32   ar
    52    27    28   ar
    53    28    29   ar
    54    28    54    1
    55    29    30   ar
    56    29    55    1
    57    30    31   ar
    58    30    56    1
    59    31    32   ar
    60    31    57    1
    61    32    58    1
    62    33    59    1
    63    33    60    1
    64    34    61    1
@<TRIPOS>SUBSTRUCTURE
     1 ZINC000462219577        1 TEMP              0 ****  ****    0 ROOT


##########                                Name:    ZINC000816269301
##########                DOCK_Rotatable_Bonds:                   7
##########                         Heavy_Atoms:                  25
##########                    Molecular_Weight:             358.784
##########                DOCK_Rotatable_Bonds:                   7
##########                       Formal_Charge:           0.0100002
##########                     HBond_Acceptors:                   8
##########                        HBond_Donors:                   1
##########                         Heavy_Atoms:                  25
##########                          Grid_Score:          -29.017614
##########                     Grid_vdw_energy:          -29.270241
##########                      Grid_es_energy:            0.252626
##########           Internal_energy_repulsive:            3.441378

@<TRIPOS>MOLECULE
ZINC000816269301
 40 42 1 0 0
SMALL
USER_CHARGES


@<TRIPOS>ATOM
      1 C1        -16.1435   -3.7085   58.6419 C.3     1  ZINC000816269301    0.1000
      2 N2        -15.1278   -3.1563   59.5418 N.pl3   1  ZINC000816269301   -0.4000
      3 N3        -15.2565   -2.9487   60.9226 N.2     1  ZINC000816269301    0.0000
      4 N4        -14.1654   -2.4489   61.3857 N.2     1  ZINC000816269301   -0.2000
      5 C5        -13.2638   -2.2924   60.3872 C.ar    1  ZINC000816269301   -0.0300
      6 C6        -11.9555   -1.8029   60.3514 C.ar    1  ZINC000816269301    0.0500
      7 C7        -11.2696   -1.7672   59.1432 C.ar    1  ZINC000816269301   -0.1400
      8 C8         -9.8874   -1.2520   59.0975 C.2     1  ZINC000816269301    0.5200
      9 O9         -9.0676   -1.6395   59.9060 O.2     1  ZINC000816269301   -0.5000
     10 O10        -9.5345   -0.3520   58.1590 O.3     1  ZINC000816269301   -0.3500
     11 C11        -9.6034    1.0498   58.5310 C.3     1  ZINC000816269301    0.0500
     12 C12        -8.2688    1.7276   58.2144 C.3     1  ZINC000816269301    0.1200
     13 N13        -7.9983    1.6264   56.7782 N.am    1  ZINC000816269301   -0.7200
     14 C14        -7.1210    2.4683   56.1966 C.2     1  ZINC000816269301    0.5600
     15 O15        -6.5531    3.3106   56.8642 O.2     1  ZINC000816269301   -0.5300
     16 C16        -6.8495    2.3672   54.7475 C.ar    1  ZINC000816269301   -0.1300
     17 C17        -5.6970    2.9421   54.2086 C.ar    1  ZINC000816269301   -0.0700
     18 C18        -5.4491    2.8446   52.8556 C.ar    1  ZINC000816269301   -0.1200
     19 C19        -6.3409    2.1778   52.0316 C.ar    1  ZINC000816269301   -0.0100
     20 Cl20       -6.0217    2.0587   50.3293 Cl      1  ZINC000816269301   -0.0600
     21 C21        -7.4860    1.6055   52.5605 C.ar    1  ZINC000816269301   -0.1200
     22 C22        -7.7417    1.6915   53.9128 C.ar    1  ZINC000816269301   -0.0500
     23 C23       -11.8859   -2.2192   57.9670 C.ar    1  ZINC000816269301   -0.0200
     24 C24       -13.1617   -2.6976   57.9957 C.ar    1  ZINC000816269301   -0.1300
     25 C25       -13.8635   -2.7472   59.1978 C.ar    1  ZINC000816269301    0.1100
     26 H26       -16.0399   -4.7927   58.5988 H       1  ZINC000816269301    0.0900
     27 H27       -17.1358   -3.4527   59.0135 H       1  ZINC000816269301    0.1000
     28 H28       -16.0104   -3.2908   57.6439 H       1  ZINC000816269301    0.1000
     29 H29       -11.4804   -1.4544   61.2567 H       1  ZINC000816269301    0.1600
     30 H30       -10.4004    1.5362   57.9687 H       1  ZINC000816269301    0.0800
     31 H31        -9.8089    1.1327   59.5983 H       1  ZINC000816269301    0.1000
     32 H32        -8.3175    2.7780   58.5017 H       1  ZINC000816269301    0.1000
     33 H33        -7.4705    1.2356   58.7700 H       1  ZINC000816269301    0.0900
     34 H34        -8.4505    0.9534   56.2457 H       1  ZINC000816269301    0.4000
     35 H35        -5.0012    3.4626   54.8500 H       1  ZINC000816269301    0.1400
     36 H36        -4.5581    3.2892   52.4375 H       1  ZINC000816269301    0.1400
     37 H37        -8.1776    1.0868   51.9131 H       1  ZINC000816269301    0.1400
     38 H38        -8.6347    1.2445   54.3241 H       1  ZINC000816269301    0.1500
     39 H39       -11.3459   -2.1875   57.0322 H       1  ZINC000816269301    0.1500
     40 H40       -13.6279   -3.0435   57.0849 H       1  ZINC000816269301    0.1400
@<TRIPOS>BOND
     1     1     2    1
     2     1    26    1
     3     1    27    1
     4     1    28    1
     5     2    25    1
     6     2     3    1
     7     3     4    2
     8     4     5    1
     9     5    25   ar
    10     5     6   ar
    11     6     7   ar
    12     6    29    1
    13     7     8    1
    14     7    23   ar
    15     8     9    2
    16     8    10    1
    17    10    11    1
    18    11    12    1
    19    11    30    1
    20    11    31    1
    21    12    13    1
    22    12    32    1
    23    12    33    1
    24    13    14   am
    25    13    34    1
    26    14    15    2
    27    14    16    1
    28    16    22   ar
    29    16    17   ar
    30    17    18   ar
    31    17    35    1
    32    18    19   ar
    33    18    36    1
    34    19    20    1
    35    19    21   ar
    36    21    22   ar
    37    21    37    1
    38    22    38    1
    39    23    24   ar
    40    23    39    1
    41    24    25   ar
    42    24    40    1
@<TRIPOS>SUBSTRUCTURE
     1 ZINC000816269301        1 TEMP              0 ****  ****    0 ROOT


##########                                Name:    ZINC000425987417
##########                DOCK_Rotatable_Bonds:                   9
##########                         Heavy_Atoms:                  25
##########                    Molecular_Weight:             357.419
##########                DOCK_Rotatable_Bonds:                   9
##########                       Formal_Charge:         -0.00999992
##########                     HBond_Acceptors:                   7
##########                        HBond_Donors:                   1
##########                         Heavy_Atoms:                  25
##########                          Grid_Score:          -28.986462
##########                     Grid_vdw_energy:          -29.162271
##########                      Grid_es_energy:            0.175809
##########           Internal_energy_repulsive:           15.713238

@<TRIPOS>MOLECULE
ZINC000425987417
 51 52 1 0 0
SMALL
USER_CHARGES


@<TRIPOS>ATOM
      1 C1         -6.3947    3.1554   54.6794 C.3     1  ZINC000425987417   -0.1500
      2 C2         -5.0418    3.8422   54.8776 C.3     1  ZINC000425987417    0.0400
      3 N3         -3.9729    2.8349   54.8518 N.3     1  ZINC000425987417   -0.5300
      4 C4         -2.8970    3.2324   53.9339 C.3     1  ZINC000425987417    0.0400
      5 C5         -3.2963    2.8839   52.4987 C.3     1  ZINC000425987417    0.1400
      6 N6         -2.0926    2.7653   51.6721 N.am    1  ZINC000425987417   -0.7500
      7 C7         -2.1921    2.7967   50.3283 C.2     1  ZINC000425987417    0.7200
      8 O8         -3.2809    2.9236   49.8022 O.2     1  ZINC000425987417   -0.5800
      9 N9         -1.0848    2.6877   49.5679 N.am    1  ZINC000425987417   -0.6200
     10 C10        -1.1595    2.7183   48.0978 C.3     1  ZINC000425987417    0.1300
     11 C11        -0.6974    1.3588   47.5756 C.3     1  ZINC000425987417   -0.1000
     12 C12         0.5851    0.9361   48.2425 C.ar    1  ZINC000425987417   -0.0600
     13 C13         1.3546   -0.0294   47.6055 C.ar    1  ZINC000425987417   -0.1200
     14 C14         2.5358   -0.4683   48.1670 C.ar    1  ZINC000425987417   -0.1100
     15 C15         2.9589    0.0544   49.3747 C.ar    1  ZINC000425987417   -0.1200
     16 C16         2.1982    1.0160   50.0079 C.ar    1  ZINC000425987417   -0.1100
     17 C17         1.0126    1.4625   49.4411 C.ar    1  ZINC000425987417   -0.0900
     18 C18         0.2438    2.5398   50.1719 C.3     1  ZINC000425987417    0.1800
     19 H19         0.1366    2.2612   51.2202 H       1  ZINC000425987417    0.0900
     20 C20         1.0036    3.8641   50.0721 C.3     1  ZINC000425987417   -0.1600
     21 C21        -3.4490    2.5884   56.2019 C.3     1  ZINC000425987417    0.0500
     22 C22        -2.9157    3.8968   56.7887 C.3     1  ZINC000425987417   -0.1600
     23 C23        -1.4810    3.6891   57.2781 C.3     1  ZINC000425987417    0.4500
     24 F24        -0.6615    3.3588   56.1933 F       1  ZINC000425987417   -0.1800
     25 F25        -1.0157    4.8669   57.8724 F       1  ZINC000425987417   -0.1800
     26 F26        -1.4539    2.6513   58.2158 F       1  ZINC000425987417   -0.1900
     27 H27        -6.5768    2.4667   55.5043 H       1  ZINC000425987417    0.0500
     28 H28        -7.1833    3.9074   54.6529 H       1  ZINC000425987417    0.0600
     29 H29        -6.3875    2.6032   53.7397 H       1  ZINC000425987417    0.0700
     30 H30        -4.8801    4.5641   54.0773 H       1  ZINC000425987417    0.0800
     31 H31        -5.0330    4.3568   55.8385 H       1  ZINC000425987417    0.0400
     32 H32        -2.7297    4.3065   54.0139 H       1  ZINC000425987417    0.0500
     33 H33        -1.9817    2.7016   54.1956 H       1  ZINC000425987417    0.0800
     34 H34        -3.8366    1.9373   52.4916 H       1  ZINC000425987417    0.0800
     35 H35        -3.9360    3.6705   52.0984 H       1  ZINC000425987417    0.0700
     36 H36        -1.2240    2.6642   52.0919 H       1  ZINC000425987417    0.3900
     37 H37        -2.1870    2.9038   47.7846 H       1  ZINC000425987417    0.1000
     38 H38        -0.5083    3.5024   47.7117 H       1  ZINC000425987417    0.0700
     39 H39        -1.4687    0.6158   47.7783 H       1  ZINC000425987417    0.0800
     40 H40        -0.5373    1.4237   46.4994 H       1  ZINC000425987417    0.0900
     41 H41         1.0250   -0.4403   46.6627 H       1  ZINC000425987417    0.1200
     42 H42         3.1281   -1.2187   47.6645 H       1  ZINC000425987417    0.1200
     43 H43         3.8806   -0.2886   49.8209 H       1  ZINC000425987417    0.1200
     44 H44         2.5279    1.4242   50.9518 H       1  ZINC000425987417    0.1200
     45 H45         1.1124    4.1425   49.0239 H       1  ZINC000425987417    0.0700
     46 H46         0.4497    4.6413   50.5988 H       1  ZINC000425987417    0.0600
     47 H47         1.9898    3.7520   50.5225 H       1  ZINC000425987417    0.0700
     48 H48        -4.2472    2.2041   56.8369 H       1  ZINC000425987417    0.0500
     49 H49        -2.6419    1.8576   56.1505 H       1  ZINC000425987417    0.0900
     50 H50        -2.9293    4.6713   56.0218 H       1  ZINC000425987417    0.1200
     51 H51        -3.5441    4.2027   57.6251 H       1  ZINC000425987417    0.1100
@<TRIPOS>BOND
     1     1     2    1
     2     1    27    1
     3     1    28    1
     4     1    29    1
     5     2     3    1
     6     2    30    1
     7     2    31    1
     8     3     4    1
     9     3    21    1
    10     4     5    1
    11     4    32    1
    12     4    33    1
    13     5     6    1
    14     5    34    1
    15     5    35    1
    16     6     7   am
    17     6    36    1
    18     7     8    2
    19     7     9   am
    20     9    18    1
    21     9    10    1
    22    10    11    1
    23    10    37    1
    24    10    38    1
    25    11    12    1
    26    11    39    1
    27    11    40    1
    28    12    17   ar
    29    12    13   ar
    30    13    14   ar
    31    13    41    1
    32    14    15   ar
    33    14    42    1
    34    15    16   ar
    35    15    43    1
    36    16    17   ar
    37    16    44    1
    38    17    18    1
    39    18    19    1
    40    18    20    1
    41    20    45    1
    42    20    46    1
    43    20    47    1
    44    21    22    1
    45    21    48    1
    46    21    49    1
    47    22    23    1
    48    22    50    1
    49    22    51    1
    50    23    24    1
    51    23    25    1
    52    23    26    1
@<TRIPOS>SUBSTRUCTURE
     1 ZINC000425987417        1 TEMP              0 ****  ****    0 ROOT


##########                                Name:    ZINC000572148596
##########                DOCK_Rotatable_Bonds:                   4
##########                         Heavy_Atoms:                  26
##########                    Molecular_Weight:             371.463
##########                DOCK_Rotatable_Bonds:                   4
##########                       Formal_Charge:          -0.0199999
##########                     HBond_Acceptors:                   8
##########                        HBond_Donors:                   0
##########                         Heavy_Atoms:                  26
##########                          Grid_Score:          -28.961174
##########                     Grid_vdw_energy:          -29.165407
##########                      Grid_es_energy:            0.204233
##########           Internal_energy_repulsive:            7.598208

@<TRIPOS>MOLECULE
ZINC000572148596
 47 50 1 0 0
SMALL
USER_CHARGES


@<TRIPOS>ATOM
      1 C1          0.3202    4.3858   50.5565 C.3     1  ZINC000572148596   -0.1400
      2 C2         -0.3248    3.0132   50.7590 C.3     1  ZINC000572148596    0.0800
      3 H3          0.3674    2.3616   51.2924 H       1  ZINC000572148596    0.1200
      4 C4         -1.5905    3.1666   51.5625 C.2     1  ZINC000572148596    0.1800
      5 N5         -1.7525    3.9324   52.6009 N.2     1  ZINC000572148596   -0.3500
      6 O6         -2.8841    3.8370   53.0268 O.3     1  ZINC000572148596    0.0900
      7 C7         -3.5790    2.9697   52.2741 C.2     1  ZINC000572148596    0.2300
      8 C8         -4.9896    2.5752   52.4582 C.ar    1  ZINC000572148596   -0.1200
      9 C9         -5.7232    3.0490   53.5555 C.ar    1  ZINC000572148596   -0.0100
     10 C10        -7.0290    2.6572   53.6866 C.ar    1  ZINC000572148596   -0.1900
     11 C11        -7.5863    1.8067   52.7346 C.ar    1  ZINC000572148596    0.3400
     12 N12        -8.9079    1.4085   52.8639 N.3     1  ZINC000572148596   -0.4700
     13 C13        -9.0712   -0.0046   52.4927 C.3     1  ZINC000572148596    0.0300
     14 C14       -10.5299   -0.4176   52.7067 C.3     1  ZINC000572148596    0.0900
     15 H15       -10.6682   -1.4480   52.3790 H       1  ZINC000572148596    0.1100
     16 C16       -10.8811   -0.3021   54.1913 C.3     1  ZINC000572148596   -0.1800
     17 O17       -11.3806    0.4439   51.9455 O.3     1  ZINC000572148596   -0.3700
     18 C18       -11.2479    1.8277   52.2816 C.3     1  ZINC000572148596    0.0800
     19 H19       -11.5191    1.9760   53.3268 H       1  ZINC000572148596    0.0700
     20 C20       -12.1718    2.6606   51.3908 C.3     1  ZINC000572148596   -0.1400
     21 C21        -9.7965    2.2634   52.0633 C.3     1  ZINC000572148596    0.0300
     22 N22        -6.8706    1.3732   51.7062 N.ar    1  ZINC000572148596   -0.5200
     23 C23        -5.6139    1.7303   51.5397 C.ar    1  ZINC000572148596    0.1900
     24 N24        -2.7557    2.5422   51.3320 N.2     1  ZINC000572148596   -0.4700
     25 C25        -0.6512    2.4087   49.4178 C.2     1  ZINC000572148596    0.0400
     26 N26         0.0136    1.4566   48.8553 N.2     1  ZINC000572148596   -0.4500
     27 C27        -0.4088    1.0431   47.6776 C.2     1  ZINC000572148596    0.0400
     28 C28        -1.4903    1.6819   47.2211 C.2     1  ZINC000572148596   -0.2500
     29 S29        -1.9605    2.8801   48.4243 S.3     1  ZINC000572148596    0.1400
     30 H30        -0.3719    5.0373   50.0231 H       1  ZINC000572148596    0.0800
     31 H31         0.5564    4.8229   51.5266 H       1  ZINC000572148596    0.0700
     32 H32         1.2357    4.2748   49.9754 H       1  ZINC000572148596    0.0800
     33 H33        -5.2688    3.7075   54.2808 H       1  ZINC000572148596    0.1500
     34 H34        -7.6210    3.0041   54.5206 H       1  ZINC000572148596    0.1500
     35 H35        -8.8050   -0.1386   51.4443 H       1  ZINC000572148596    0.0600
     36 H36        -8.4233   -0.6216   53.1153 H       1  ZINC000572148596    0.1000
     37 H37       -10.7440    0.7288   54.5180 H       1  ZINC000572148596    0.0700
     38 H38       -11.9196   -0.5962   54.3430 H       1  ZINC000572148596    0.0600
     39 H39       -10.2297   -0.9565   54.7708 H       1  ZINC000572148596    0.0700
     40 H40       -13.2043    2.3471   51.5445 H       1  ZINC000572148596    0.0700
     41 H41       -12.0702    3.7151   51.6475 H       1  ZINC000572148596    0.0700
     42 H42       -11.8991    2.5131   50.3458 H       1  ZINC000572148596    0.0600
     43 H43        -9.6779    3.3019   52.3723 H       1  ZINC000572148596    0.1000
     44 H44        -9.5419    2.1656   51.0080 H       1  ZINC000572148596    0.0600
     45 H45        -5.0593    1.3587   50.6907 H       1  ZINC000572148596    0.1700
     46 H46         0.0791    0.2529   47.1262 H       1  ZINC000572148596    0.1800
     47 H47        -1.9901    1.4943   46.2822 H       1  ZINC000572148596    0.1800
@<TRIPOS>BOND
     1     1     2    1
     2     1    30    1
     3     1    31    1
     4     1    32    1
     5     2     3    1
     6     2     4    1
     7     2    25    1
     8     4    24    1
     9     4     5    2
    10     5     6    1
    11     6     7    1
    12     7     8    1
    13     7    24    2
    14     8    23   ar
    15     8     9   ar
    16     9    10   ar
    17     9    33    1
    18    10    11   ar
    19    10    34    1
    20    11    12    1
    21    11    22   ar
    22    12    21    1
    23    12    13    1
    24    13    14    1
    25    13    35    1
    26    13    36    1
    27    14    15    1
    28    14    16    1
    29    14    17    1
    30    16    37    1
    31    16    38    1
    32    16    39    1
    33    17    18    1
    34    18    19    1
    35    18    20    1
    36    18    21    1
    37    20    40    1
    38    20    41    1
    39    20    42    1
    40    21    43    1
    41    21    44    1
    42    22    23   ar
    43    23    45    1
    44    25    29    1
    45    25    26    2
    46    26    27    1
    47    27    28    2
    48    27    46    1
    49    28    29    1
    50    28    47    1
@<TRIPOS>SUBSTRUCTURE
     1 ZINC000572148596        1 TEMP              0 ****  ****    0 ROOT


##########                                Name:    ZINC000047262406
##########                DOCK_Rotatable_Bonds:                   6
##########                         Heavy_Atoms:                  28
##########                    Molecular_Weight:             417.919
##########                DOCK_Rotatable_Bonds:                   6
##########                       Formal_Charge:          -0.0100002
##########                     HBond_Acceptors:                   9
##########                        HBond_Donors:                   1
##########                         Heavy_Atoms:                  28
##########                          Grid_Score:          -28.950951
##########                     Grid_vdw_energy:          -28.268257
##########                      Grid_es_energy:           -0.682693
##########           Internal_energy_repulsive:           15.278348

@<TRIPOS>MOLECULE
ZINC000047262406
 48 51 1 0 0
SMALL
USER_CHARGES


@<TRIPOS>ATOM
      1 C1         -5.2901    3.4076   56.3071 C.3     1  ZINC000047262406   -0.1500
      2 C2         -5.7125    4.0000   54.9611 C.3     1  ZINC000047262406    0.1800
      3 H3         -5.6160    5.0852   54.9953 H       1  ZINC000047262406    0.0800
      4 C4         -7.1462    3.6319   54.6781 C.2     1  ZINC000047262406    0.1700
      5 N5         -8.1792    4.4177   54.7950 N.2     1  ZINC000047262406   -0.2500
      6 N6         -9.2473    3.7771   54.4725 N.2     1  ZINC000047262406   -0.2700
      7 C7         -8.9288    2.5464   54.1347 C.2     1  ZINC000047262406    0.2400
      8 C8         -9.8578    1.4918   53.7019 C.2     1  ZINC000047262406   -0.1500
      9 C9        -11.1941    1.6545   53.4982 C.2     1  ZINC000047262406   -0.0600
     10 C10       -11.8520    0.5141   53.0934 C.2     1  ZINC000047262406   -0.1400
     11 C11       -11.0822   -0.5713   52.9635 C.2     1  ZINC000047262406   -0.1900
     12 S12        -9.4153   -0.1757   53.3589 S.3     1  ZINC000047262406    0.1700
     13 O13        -7.5897    2.4345   54.2537 O.3     1  ZINC000047262406   -0.2200
     14 N14        -4.8508    3.4649   53.8985 N.3     1  ZINC000047262406   -0.5200
     15 C15        -3.4850    3.9920   54.0132 C.3     1  ZINC000047262406    0.0500
     16 C16        -2.5837    3.3052   52.9847 C.3     1  ZINC000047262406   -0.1000
     17 C17        -3.1336    3.5622   51.5789 C.3     1  ZINC000047262406   -0.1100
     18 C18        -2.2843    2.8385   50.5659 C.2     1  ZINC000047262406    0.5100
     19 O19        -2.7917    2.3861   49.5616 O.2     1  ZINC000047262406   -0.4600
     20 N20        -0.9608    2.6943   50.7761 N.am    1  ZINC000047262406   -0.6600
     21 C21        -0.1749    2.0246   49.8387 C.ar    1  ZINC000047262406    0.3600
     22 C22        -0.0297    2.5510   48.5606 C.ar    1  ZINC000047262406   -0.2000
     23 C23         0.7533    1.8770   47.6396 C.ar    1  ZINC000047262406   -0.0400
     24 C24         1.3666    0.6942   48.0313 C.ar    1  ZINC000047262406   -0.1200
     25 Cl25        2.3598   -0.1905   46.9156 Cl      1  ZINC000047262406   -0.0500
     26 C26         1.1781    0.2291   49.3194 C.ar    1  ZINC000047262406    0.1500
     27 N27         0.4299    0.8967   50.1763 N.ar    1  ZINC000047262406   -0.4600
     28 C28        -4.5736    3.0474   51.5008 C.3     1  ZINC000047262406   -0.1100
     29 C29        -5.4172    3.7417   52.5723 C.3     1  ZINC000047262406    0.0600
     30 H30        -4.2530    3.6738   56.5117 H       1  ZINC000047262406    0.0800
     31 H31        -5.9294    3.8046   57.0955 H       1  ZINC000047262406    0.0700
     32 H32        -5.3867    2.3224   56.2728 H       1  ZINC000047262406    0.0800
     33 H33       -11.6967    2.5996   53.6423 H       1  ZINC000047262406    0.1600
     34 H34       -12.9137    0.4977   52.8957 H       1  ZINC000047262406    0.1600
     35 H35       -11.4318   -1.5461   52.6569 H       1  ZINC000047262406    0.1800
     36 H36        -3.4937    5.0663   53.8286 H       1  ZINC000047262406    0.0400
     37 H37        -3.1042    3.7992   55.0161 H       1  ZINC000047262406    0.0900
     38 H38        -1.5735    3.7079   53.0595 H       1  ZINC000047262406    0.0800
     39 H39        -2.5636    2.2325   53.1771 H       1  ZINC000047262406    0.0900
     40 H40        -3.1164    4.6320   51.3710 H       1  ZINC000047262406    0.1000
     41 H41        -0.5551    3.0561   51.5794 H       1  ZINC000047262406    0.4200
     42 H42        -0.5216    3.4735   48.2896 H       1  ZINC000047262406    0.1500
     43 H43         0.8840    2.2619   46.6391 H       1  ZINC000047262406    0.1500
     44 H44         1.6524   -0.6904   49.6290 H       1  ZINC000047262406    0.1700
     45 H45        -4.9851    3.2659   50.5154 H       1  ZINC000047262406    0.0700
     46 H46        -4.5848    1.9706   51.6699 H       1  ZINC000047262406    0.0800
     47 H47        -6.4398    3.3670   52.5286 H       1  ZINC000047262406    0.0700
     48 H48        -5.4168    4.8172   52.3945 H       1  ZINC000047262406    0.0400
@<TRIPOS>BOND
     1     1     2    1
     2     1    30    1
     3     1    31    1
     4     1    32    1
     5     2     3    1
     6     2     4    1
     7     2    14    1
     8     4    13    1
     9     4     5    2
    10     5     6    1
    11     6     7    2
    12     7     8    1
    13     7    13    1
    14     8    12    1
    15     8     9    2
    16     9    10    1
    17     9    33    1
    18    10    11    2
    19    10    34    1
    20    11    12    1
    21    11    35    1
    22    14    29    1
    23    14    15    1
    24    15    16    1
    25    15    36    1
    26    15    37    1
    27    16    17    1
    28    16    38    1
    29    16    39    1
    30    17    18    1
    31    17    28    1
    32    17    40    1
    33    18    19    2
    34    18    20   am
    35    20    21    1
    36    20    41    1
    37    21    27   ar
    38    21    22   ar
    39    22    23   ar
    40    22    42    1
    41    23    24   ar
    42    23    43    1
    43    24    25    1
    44    24    26   ar
    45    26    27   ar
    46    26    44    1
    47    28    29    1
    48    28    45    1
    49    28    46    1
    50    29    47    1
    51    29    48    1
@<TRIPOS>SUBSTRUCTURE
     1 ZINC000047262406        1 TEMP              0 ****  ****    0 ROOT


##########                                Name:    ZINC000880838037
##########                DOCK_Rotatable_Bonds:                   9
##########                         Heavy_Atoms:                  24
##########                    Molecular_Weight:             365.477
##########                DOCK_Rotatable_Bonds:                   9
##########                       Formal_Charge:           0.0200001
##########                     HBond_Acceptors:                   8
##########                        HBond_Donors:                   3
##########                         Heavy_Atoms:                  24
##########                          Grid_Score:          -28.947256
##########                     Grid_vdw_energy:          -28.892212
##########                      Grid_es_energy:           -0.055044
##########           Internal_energy_repulsive:           10.502793

@<TRIPOS>MOLECULE
ZINC000880838037
 43 44 1 0 0
SMALL
USER_CHARGES


@<TRIPOS>ATOM
      1 C1          2.4524   -1.0960   49.4926 C.3     1  ZINC000880838037    0.0300
      2 O2          2.5208    0.2106   48.9178 O.3     1  ZINC000880838037   -0.3100
      3 C3          1.3418    0.8477   48.6920 C.ar    1  ZINC000880838037    0.1400
      4 C4          0.5590    0.4937   47.6022 C.ar    1  ZINC000880838037   -0.2200
      5 C5         -0.6402    1.1408   47.3712 C.ar    1  ZINC000880838037   -0.0700
      6 C6         -1.0631    2.1421   48.2236 C.ar    1  ZINC000880838037   -0.1500
      7 C7         -0.2832    2.5009   49.3159 C.ar    1  ZINC000880838037    0.1800
      8 N8         -0.7115    3.5152   50.1795 N.am    1  ZINC000880838037   -0.6700
      9 C9         -1.8248    3.3445   50.9197 C.2     1  ZINC000880838037    0.5200
     10 O10        -2.4554    2.3118   50.8373 O.2     1  ZINC000880838037   -0.4900
     11 C11        -2.2861    4.4369   51.8497 C.3     1  ZINC000880838037   -0.0600
     12 C12        -3.1265    3.8394   52.9487 C.2     1  ZINC000880838037    0.1000
     13 C13        -2.6095    3.4210   54.1044 C.2     1  ZINC000880838037   -0.2600
     14 S14        -3.9238    2.7975   55.0981 S.3     1  ZINC000880838037    0.1300
     15 C15        -5.0460    3.1604   53.8604 C.2     1  ZINC000880838037    0.0100
     16 S16        -6.7803    2.8621   53.9510 S.3     1  ZINC000880838037    0.1000
     17 C17        -7.1803    2.7958   52.1870 C.3     1  ZINC000880838037   -0.1500
     18 H18        -6.5694    3.5203   51.6484 H       1  ZINC000880838037    0.1200
     19 C19        -8.6604    3.1277   51.9868 C.3     1  ZINC000880838037   -0.1500
     20 C20        -6.9001    1.4120   51.6600 C.2     1  ZINC000880838037    0.5400
     21 N21        -5.6644    1.0935   51.2263 N.am    1  ZINC000880838037   -0.8400
     22 O22        -7.7865    0.5850   51.6262 O.2     1  ZINC000880838037   -0.5200
     23 N23        -4.4353    3.6929   52.8469 N.2     1  ZINC000880838037   -0.4200
     24 C24         0.9179    1.8478   49.5531 C.ar    1  ZINC000880838037   -0.1500
     25 C25         1.7665    2.2344   50.7371 C.3     1  ZINC000880838037   -0.1000
     26 H26         1.8857   -1.7536   48.8335 H       1  ZINC000880838037    0.0600
     27 H27         3.4607   -1.4902   49.6198 H       1  ZINC000880838037    0.1000
     28 H28         1.9589   -1.0408   50.4628 H       1  ZINC000880838037    0.0600
     29 H29         0.8874   -0.2882   46.9336 H       1  ZINC000880838037    0.1300
     30 H30        -1.2476    0.8635   46.5224 H       1  ZINC000880838037    0.1300
     31 H31        -2.0004    2.6465   48.0407 H       1  ZINC000880838037    0.1400
     32 H32        -0.2071    4.3411   50.2453 H       1  ZINC000880838037    0.4100
     33 H33        -1.4190    4.9339   52.2847 H       1  ZINC000880838037    0.1200
     34 H34        -2.8790    5.1622   51.2924 H       1  ZINC000880838037    0.1200
     35 H35        -1.5666    3.4574   54.3826 H       1  ZINC000880838037    0.1800
     36 H36        -9.2713    2.4033   52.5253 H       1  ZINC000880838037    0.0900
     37 H37        -8.8630    4.1287   52.3679 H       1  ZINC000880838037    0.0800
     38 H38        -8.9012    3.0878   50.9245 H       1  ZINC000880838037    0.0800
     39 H39        -5.4837    0.2025   50.8882 H       1  ZINC000880838037    0.4000
     40 H40        -4.9557    1.7554   51.2522 H       1  ZINC000880838037    0.4100
     41 H41         1.4799    1.6346   51.6008 H       1  ZINC000880838037    0.0700
     42 H42         2.8166    2.0580   50.5045 H       1  ZINC000880838037    0.0700
     43 H43         1.6166    3.2903   50.9621 H       1  ZINC000880838037    0.0600
@<TRIPOS>BOND
     1     1     2    1
     2     1    26    1
     3     1    27    1
     4     1    28    1
     5     2     3    1
     6     3    24   ar
     7     3     4   ar
     8     4     5   ar
     9     4    29    1
    10     5     6   ar
    11     5    30    1
    12     6     7   ar
    13     6    31    1
    14     7     8    1
    15     7    24   ar
    16     8     9   am
    17     8    32    1
    18     9    10    2
    19     9    11    1
    20    11    12    1
    21    11    33    1
    22    11    34    1
    23    12    23    1
    24    12    13    2
    25    13    14    1
    26    13    35    1
    27    14    15    1
    28    15    16    1
    29    15    23    2
    30    16    17    1
    31    17    18    1
    32    17    19    1
    33    17    20    1
    34    19    36    1
    35    19    37    1
    36    19    38    1
    37    20    21   am
    38    20    22    2
    39    21    39    1
    40    21    40    1
    41    24    25    1
    42    25    41    1
    43    25    42    1
    44    25    43    1
@<TRIPOS>SUBSTRUCTURE
     1 ZINC000880838037        1 TEMP              0 ****  ****    0 ROOT


##########                                Name:    ZINC000805177769
##########                DOCK_Rotatable_Bonds:                  10
##########                         Heavy_Atoms:                  30
##########                    Molecular_Weight:             417.548
##########                DOCK_Rotatable_Bonds:                  10
##########                       Formal_Charge:           0.0199995
##########                     HBond_Acceptors:                   7
##########                        HBond_Donors:                   1
##########                         Heavy_Atoms:                  30
##########                          Grid_Score:          -28.931625
##########                     Grid_vdw_energy:          -29.675060
##########                      Grid_es_energy:            0.743435
##########           Internal_energy_repulsive:           53.371849

@<TRIPOS>MOLECULE
ZINC000805177769
 65 66 1 0 0
SMALL
USER_CHARGES


@<TRIPOS>ATOM
      1 C1         -2.1855    2.6717   57.1451 C.3     1  ZINC000805177769   -0.1200
      2 C2         -3.1350    3.0250   56.0293 C.ar    1  ZINC000805177769   -0.0800
      3 C3         -4.4328    3.4011   56.3195 C.ar    1  ZINC000805177769   -0.1200
      4 C4         -5.3039    3.7253   55.2958 C.ar    1  ZINC000805177769   -0.1100
      5 C5         -4.8766    3.6734   53.9824 C.ar    1  ZINC000805177769   -0.0900
      6 C6         -5.8262    4.0263   52.8667 C.3     1  ZINC000805177769   -0.0900
      7 C7         -6.3640    2.7432   52.2299 C.3     1  ZINC000805177769    0.1500
      8 H8         -5.6731    1.9231   52.4257 H       1  ZINC000805177769    0.1000
      9 C9         -6.5032    2.9431   50.7194 C.3     1  ZINC000805177769   -0.1700
     10 N10        -7.6740    2.4253   52.8033 N.am    1  ZINC000805177769   -0.6900
     11 C11        -8.1743    1.1788   52.6913 C.2     1  ZINC000805177769    0.5100
     12 O12        -7.5401    0.3202   52.1141 O.2     1  ZINC000805177769   -0.5100
     13 C13        -9.5099    0.8542   53.2778 C.2     1  ZINC000805177769    0.5200
     14 O14       -10.3947    0.4210   52.5693 O.2     1  ZINC000805177769   -0.5200
     15 N15        -9.7318    1.0427   54.5938 N.am    1  ZINC000805177769   -0.5900
     16 C16       -10.9922    0.7665   55.2984 C.3     1  ZINC000805177769    0.1100
     17 C17       -10.7689    1.1063   56.7871 C.3     1  ZINC000805177769   -0.1500
     18 C18        -9.2270    1.0180   56.9362 C.3     1  ZINC000805177769    0.1500
     19 H19        -8.9070   -0.0138   57.0815 H       1  ZINC000805177769    0.1200
     20 N20        -8.7557    1.8701   58.0307 N.am    1  ZINC000805177769   -0.5900
     21 C21        -8.0107    3.0966   57.7356 C.3     1  ZINC000805177769    0.0800
     22 C22        -9.0072    1.5257   59.3092 C.2     1  ZINC000805177769    0.6600
     23 O23        -8.6148    2.2316   60.2171 O.2     1  ZINC000805177769   -0.5600
     24 O24        -9.6931    0.3992   59.5804 O.3     1  ZINC000805177769   -0.3600
     25 C25       -10.2409    0.2672   60.9187 C.3     1  ZINC000805177769    0.1400
     26 C26       -11.1251   -0.9796   60.9870 C.3     1  ZINC000805177769   -0.1800
     27 C27        -9.0977    0.1375   61.9272 C.3     1  ZINC000805177769   -0.1400
     28 C28       -11.0771    1.5044   61.2518 C.3     1  ZINC000805177769   -0.1800
     29 C29        -8.7488    1.5541   55.5662 C.3     1  ZINC000805177769    0.0900
     30 C30        -3.5779    3.2985   53.6922 C.ar    1  ZINC000805177769   -0.0800
     31 C31        -3.1119    3.2425   52.2602 C.3     1  ZINC000805177769   -0.1200
     32 C32        -2.7060    2.9782   54.7158 C.ar    1  ZINC000805177769   -0.1200
     33 H33        -1.6626    3.5694   57.4750 H       1  ZINC000805177769    0.0700
     34 H34        -2.7461    2.2504   57.9795 H       1  ZINC000805177769    0.0700
     35 H35        -1.4610    1.9399   56.7876 H       1  ZINC000805177769    0.0700
     36 H36        -4.7667    3.4417   57.3458 H       1  ZINC000805177769    0.1200
     37 H37        -6.3183    4.0185   55.5226 H       1  ZINC000805177769    0.1200
     38 H38        -6.6561    4.6088   53.2664 H       1  ZINC000805177769    0.0800
     39 H39        -5.3000    4.6128   52.1135 H       1  ZINC000805177769    0.0900
     40 H40        -7.1941    3.7631   50.5237 H       1  ZINC000805177769    0.0600
     41 H41        -5.5284    3.1795   50.2928 H       1  ZINC000805177769    0.0700
     42 H42        -6.8863    2.0290   50.2657 H       1  ZINC000805177769    0.0600
     43 H43        -8.1815    3.1120   53.2636 H       1  ZINC000805177769    0.4100
     44 H44       -11.7887    1.3895   54.8915 H       1  ZINC000805177769    0.0900
     45 H45       -11.2523   -0.2868   55.1936 H       1  ZINC000805177769    0.0900
     46 H46       -11.1208    2.1136   57.0098 H       1  ZINC000805177769    0.0900
     47 H47       -11.2607    0.3744   57.4278 H       1  ZINC000805177769    0.0900
     48 H48        -8.7072    3.9285   57.6311 H       1  ZINC000805177769    0.0600
     49 H49        -7.3160    3.3044   58.5493 H       1  ZINC000805177769    0.0800
     50 H50        -7.4547    2.9694   56.8067 H       1  ZINC000805177769    0.0800
     51 H51       -10.5294   -1.8611   60.7496 H       1  ZINC000805177769    0.0600
     52 H52       -11.5364   -1.0787   61.9915 H       1  ZINC000805177769    0.0700
     53 H53       -11.9396   -0.8872   60.2685 H       1  ZINC000805177769    0.0900
     54 H54        -8.4677    1.0257   61.8785 H       1  ZINC000805177769    0.0700
     55 H55        -9.5089    0.0383   62.9317 H       1  ZINC000805177769    0.0800
     56 H56        -8.5020   -0.7440   61.6898 H       1  ZINC000805177769    0.0700
     57 H57       -11.8915    1.5967   60.5334 H       1  ZINC000805177769    0.0900
     58 H58       -11.4883    1.4052   62.2564 H       1  ZINC000805177769    0.0700
     59 H59       -10.4471    2.3925   61.2031 H       1  ZINC000805177769    0.0600
     60 H60        -7.7523    1.1762   55.3378 H       1  ZINC000805177769    0.0900
     61 H61        -8.7520    2.6441   55.5633 H       1  ZINC000805177769    0.0800
     62 H62        -2.7030    4.2112   51.9731 H       1  ZINC000805177769    0.0700
     63 H63        -2.3414    2.4782   52.1585 H       1  ZINC000805177769    0.0700
     64 H64        -3.9542    2.9975   51.6133 H       1  ZINC000805177769    0.0700
     65 H65        -1.6915    2.6853   54.4892 H       1  ZINC000805177769    0.1200
@<TRIPOS>BOND
     1     1     2    1
     2     1    33    1
     3     1    34    1
     4     1    35    1
     5     2    32   ar
     6     2     3   ar
     7     3     4   ar
     8     3    36    1
     9     4     5   ar
    10     4    37    1
    11     5     6    1
    12     5    30   ar
    13     6     7    1
    14     6    38    1
    15     6    39    1
    16     7     8    1
    17     7     9    1
    18     7    10    1
    19     9    40    1
    20     9    41    1
    21     9    42    1
    22    10    11   am
    23    10    43    1
    24    11    12    2
    25    11    13    1
    26    13    14    2
    27    13    15   am
    28    15    29    1
    29    15    16    1
    30    16    17    1
    31    16    44    1
    32    16    45    1
    33    17    18    1
    34    17    46    1
    35    17    47    1
    36    18    19    1
    37    18    20    1
    38    18    29    1
    39    20    21    1
    40    20    22   am
    41    21    48    1
    42    21    49    1
    43    21    50    1
    44    22    23    2
    45    22    24    1
    46    24    25    1
    47    25    26    1
    48    25    27    1
    49    25    28    1
    50    26    51    1
    51    26    52    1
    52    26    53    1
    53    27    54    1
    54    27    55    1
    55    27    56    1
    56    28    57    1
    57    28    58    1
    58    28    59    1
    59    29    60    1
    60    29    61    1
    61    30    31    1
    62    30    32   ar
    63    31    62    1
    64    31    63    1
    65    31    64    1
    66    32    65    1
@<TRIPOS>SUBSTRUCTURE
     1 ZINC000805177769        1 TEMP              0 ****  ****    0 ROOT


##########                                Name:    ZINC000012087388
##########                DOCK_Rotatable_Bonds:                   5
##########                         Heavy_Atoms:                  29
##########                    Molecular_Weight:              418.52
##########                DOCK_Rotatable_Bonds:                   5
##########                       Formal_Charge:          -0.0499999
##########                     HBond_Acceptors:                  10
##########                        HBond_Donors:                   1
##########                         Heavy_Atoms:                  29
##########                          Grid_Score:          -28.902786
##########                     Grid_vdw_energy:          -28.322586
##########                      Grid_es_energy:           -0.580199
##########           Internal_energy_repulsive:           28.738329

@<TRIPOS>MOLECULE
ZINC000012087388
 55 58 1 0 0
SMALL
USER_CHARGES


@<TRIPOS>ATOM
      1 C1        -14.9109   -4.3251   56.8069 C.3     1  <0>        -0.6600
      2 S2        -15.7800   -3.0257   57.7271 S.o2    1  <0>         2.5100
      3 O3        -16.1964   -1.9876   56.8507 O.2     1  <0>        -0.9400
      4 O4        -16.6806   -3.5970   58.6661 O.2     1  <0>        -0.9300
      5 C5        -14.5307   -2.2803   58.7211 C.ar    1  <0>        -0.8400
      6 C6        -14.5302   -2.4429   60.0974 C.ar    1  <0>         0.3000
      7 N7        -13.5776   -1.8702   60.8146 N.ar    1  <0>        -0.5800
      8 C8        -12.6321   -1.1484   60.2314 C.ar    1  <0>         0.6000
      9 N9        -11.6505   -0.5632   61.0122 N.pl3   1  <0>        -0.5700
     10 C10       -10.3141   -1.1657   61.1107 C.3     1  <0>         0.1200
     11 C11        -9.2674   -0.1044   60.7575 C.3     1  <0>        -0.1400
     12 C12        -9.4707    1.1231   61.6485 C.3     1  <0>        -0.1200
     13 C13       -10.8604    1.7130   61.3979 C.3     1  <0>        -0.1400
     14 C14       -11.9233    0.6756   61.7536 C.3     1  <0>         0.1200
     15 N15       -12.6036   -0.9736   58.9182 N.ar    1  <0>        -0.5700
     16 C16       -13.5237   -1.5230   58.1429 C.ar    1  <0>         0.3200
     17 C17       -13.4840   -1.3194   56.6504 C.3     1  <0>        -0.0700
     18 C18       -13.9053    0.1144   56.3200 C.3     1  <0>        -0.1300
     19 C19       -13.8971    0.3074   54.8003 C.3     1  <0>         0.0900
     20 N20       -12.5738   -0.0670   54.2832 N.am    1  <0>        -0.6100
     21 C21       -11.8690    0.7885   53.5164 C.2     1  <0>         0.5900
     22 O22       -12.3274    1.8822   53.2464 O.2     1  <0>        -0.5100
     23 C23       -10.5448    0.3991   53.0059 C.2     1  <0>        -0.0400
     24 C24        -9.3146    0.7565   53.5297 C.2     1  <0>        -0.1500
     25 C25        -8.3689    0.1456   52.7030 C.2     1  <0>         0.0000
     26 N26        -9.0137   -0.5131   51.7741 N.2     1  <0>        -0.2700
     27 N27       -10.2837   -0.3922   51.9235 N.pl3   1  <0>        -0.3900
     28 C28       -12.0333   -1.3915   54.6181 C.3     1  <0>         0.1100
     29 C29       -12.0623   -1.5655   56.1398 C.3     1  <0>        -0.1200
     30 H30       -14.1230   -3.8768   56.2017 H       1  <0>         0.1400
     31 H31       -14.4714   -5.0347   57.5079 H       1  <0>         0.1300
     32 H32       -15.6162   -4.8447   56.1582 H       1  <0>         0.1400
     33 H33       -15.2985   -3.0300   60.5786 H       1  <0>         0.1900
     34 H34       -10.1468   -1.5195   62.1281 H       1  <0>         0.0700
     35 H35       -10.2375   -2.0006   60.4142 H       1  <0>         0.1000
     36 H36        -8.2688   -0.5102   60.9194 H       1  <0>         0.0800
     37 H37        -9.3789    0.1826   59.7118 H       1  <0>         0.0700
     38 H38        -9.3836    0.8307   62.6949 H       1  <0>         0.0700
     39 H39        -8.7117    1.8703   61.4161 H       1  <0>         0.0700
     40 H40       -10.9956    2.6008   62.0157 H       1  <0>         0.0800
     41 H41       -10.9568    1.9829   60.3462 H       1  <0>         0.0700
     42 H42       -12.9089    1.0550   61.4838 H       1  <0>         0.1000
     43 H43       -11.8890    0.4694   62.8234 H       1  <0>         0.0700
     44 H44       -14.1684   -2.0185   56.1701 H       1  <0>         0.1000
     45 H45       -14.9089    0.2963   56.7044 H       1  <0>         0.0800
     46 H46       -13.2068    0.8138   56.7794 H       1  <0>         0.0900
     47 H47       -14.6592   -0.3267   54.3473 H       1  <0>         0.0800
     48 H48       -14.0999    1.3519   54.5635 H       1  <0>         0.0900
     49 H49        -9.1260    1.3760   54.3940 H       1  <0>         0.1700
     50 H50        -7.2961    0.2065   52.8109 H       1  <0>         0.1900
     51 H51       -10.9549   -0.7954   51.3510 H       1  <0>         0.4400
     52 H52       -12.6434   -2.1641   54.1502 H       1  <0>         0.0800
     53 H53       -11.0062   -1.4680   54.2611 H       1  <0>         0.1000
     54 H54       -11.3813   -0.8503   56.6009 H       1  <0>         0.0800
     55 H55       -11.7542   -2.5792   56.3961 H       1  <0>         0.0900
@<TRIPOS>BOND
     1     1     2    1
     2     1    30    1
     3     1    31    1
     4     1    32    1
     5     2     3    2
     6     2     4    2
     7     2     5    1
     8     5    16   ar
     9     5     6   ar
    10     6     7   ar
    11     6    33    1
    12     7     8   ar
    13     8     9    1
    14     8    15   ar
    15     9    14    1
    16     9    10    1
    17    10    11    1
    18    10    34    1
    19    10    35    1
    20    11    12    1
    21    11    36    1
    22    11    37    1
    23    12    13    1
    24    12    38    1
    25    12    39    1
    26    13    14    1
    27    13    40    1
    28    13    41    1
    29    14    42    1
    30    14    43    1
    31    15    16   ar
    32    16    17    1
    33    17    29    1
    34    17    18    1
    35    17    44    1
    36    18    19    1
    37    18    45    1
    38    18    46    1
    39    19    20    1
    40    19    47    1
    41    19    48    1
    42    20    21   am
    43    20    28    1
    44    21    22    2
    45    21    23    1
    46    23    27    1
    47    23    24    2
    48    24    25    1
    49    24    49    1
    50    25    26    2
    51    25    50    1
    52    26    27    1
    53    27    51    1
    54    28    29    1
    55    28    52    1
    56    28    53    1
    57    29    54    1
    58    29    55    1
@<TRIPOS>SUBSTRUCTURE
     1 <0>         1 TEMP              0 ****  ****    0 ROOT


##########                                Name:    ZINC000373715094
##########                DOCK_Rotatable_Bonds:                   6
##########                         Heavy_Atoms:                  27
##########                    Molecular_Weight:             362.431
##########                DOCK_Rotatable_Bonds:                   6
##########                       Formal_Charge:           0.0299999
##########                     HBond_Acceptors:                   6
##########                        HBond_Donors:                   2
##########                         Heavy_Atoms:                  27
##########                          Grid_Score:          -28.900608
##########                     Grid_vdw_energy:          -26.162539
##########                      Grid_es_energy:           -2.738070
##########           Internal_energy_repulsive:            9.654889

@<TRIPOS>MOLECULE
ZINC000373715094
 49 52 1 0 0
SMALL
USER_CHARGES


@<TRIPOS>ATOM
      1 C1        -12.4178    0.5942   51.5497 C.3     1  ZINC000373715094    0.0900
      2 N2        -11.8891    0.7827   52.9029 N.am    1  ZINC000373715094   -0.6100
      3 C3        -12.5280    1.4473   53.8811 C.2     1  ZINC000373715094    0.5200
      4 O4        -13.6127    1.9776   53.7668 O.2     1  ZINC000373715094   -0.5200
      5 C5        -11.6973    1.4374   55.1454 C.3     1  ZINC000373715094   -0.1600
      6 C6        -10.6580    0.3175   54.9074 C.3     1  ZINC000373715094   -0.1000
      7 H7         -9.6902    0.5873   55.3300 H       1  ZINC000373715094    0.1100
      8 C8        -11.1486   -1.0151   55.4771 C.3     1  ZINC000373715094    0.1300
      9 N9        -11.3272   -0.8907   56.9258 N.am    1  ZINC000373715094   -0.7300
     10 C10       -11.1922   -1.9736   57.7168 C.2     1  ZINC000373715094    0.5200
     11 O11       -10.9216   -3.0507   57.2294 O.2     1  ZINC000373715094   -0.5200
     12 C12       -11.3777   -1.8459   59.2069 C.3     1  ZINC000373715094   -0.0600
     13 C13       -10.0447   -1.5813   59.8581 C.2     1  ZINC000373715094    0.1200
     14 N14        -8.8831   -1.9680   59.4137 N.2     1  ZINC000373715094   -0.2300
     15 N15        -7.8709   -1.5406   60.2792 N.pl3   1  ZINC000373715094   -0.5100
     16 C16        -8.4337   -0.8496   61.3203 C.ar    1  ZINC000373715094    0.1300
     17 C17        -7.9184   -0.2133   62.4465 C.ar    1  ZINC000373715094   -0.1400
     18 C18        -8.7630    0.4063   63.3237 C.ar    1  ZINC000373715094   -0.0700
     19 C19       -10.1354    0.4105   63.1078 C.ar    1  ZINC000373715094   -0.1600
     20 C20       -10.6689   -0.2050   62.0125 C.ar    1  ZINC000373715094   -0.0400
     21 C21        -9.8243   -0.8405   61.0960 C.ar    1  ZINC000373715094   -0.1600
     22 C22       -10.5965    0.2646   53.3665 C.3     1  ZINC000373715094    0.1800
     23 H23       -10.4538   -0.7622   53.0297 H       1  ZINC000373715094    0.1000
     24 C24        -9.4792    1.1394   52.8589 C.ar    1  ZINC000373715094   -0.1000
     25 C25        -9.7280    2.4599   52.5350 C.ar    1  ZINC000373715094   -0.1000
     26 C26        -8.7031    3.2622   52.0693 C.ar    1  ZINC000373715094   -0.1200
     27 C27        -7.4294    2.7440   51.9280 C.ar    1  ZINC000373715094   -0.1100
     28 C28        -7.1804    1.4237   52.2529 C.ar    1  ZINC000373715094   -0.1200
     29 C29        -8.2043    0.6226   52.7225 C.ar    1  ZINC000373715094   -0.1100
     30 H30       -13.0054   -0.3232   51.5137 H       1  ZINC000373715094    0.0600
     31 H31       -13.0506    1.4415   51.2856 H       1  ZINC000373715094    0.0800
     32 H32       -11.5908    0.5241   50.8430 H       1  ZINC000373715094    0.0700
     33 H33       -11.1993    2.3972   55.2822 H       1  ZINC000373715094    0.1100
     34 H34       -12.3197    1.2029   56.0089 H       1  ZINC000373715094    0.1100
     35 H35       -12.0999   -1.2794   55.0151 H       1  ZINC000373715094    0.0700
     36 H36       -10.4142   -1.7925   55.2669 H       1  ZINC000373715094    0.0800
     37 H37       -11.5424   -0.0290   57.3157 H       1  ZINC000373715094    0.4000
     38 H38       -12.0562   -1.0197   59.4192 H       1  ZINC000373715094    0.1200
     39 H39       -11.7974   -2.7713   59.6014 H       1  ZINC000373715094    0.1200
     40 H40        -6.9225   -1.7070   60.1616 H       1  ZINC000373715094    0.4400
     41 H41        -6.8535   -0.2099   62.6265 H       1  ZINC000373715094    0.1300
     42 H42        -8.3588    0.8985   64.1959 H       1  ZINC000373715094    0.1300
     43 H43       -10.7863    0.9053   63.8135 H       1  ZINC000373715094    0.1300
     44 H44       -11.7369   -0.1973   61.8517 H       1  ZINC000373715094    0.1300
     45 H45       -10.7231    2.8648   52.6453 H       1  ZINC000373715094    0.1200
     46 H46        -8.8977    4.2938   51.8155 H       1  ZINC000373715094    0.1200
     47 H47        -6.6288    3.3707   51.5635 H       1  ZINC000373715094    0.1200
     48 H48        -6.1854    1.0188   52.1421 H       1  ZINC000373715094    0.1300
     49 H49        -8.0098   -0.4090   52.9763 H       1  ZINC000373715094    0.1300
@<TRIPOS>BOND
     1     1     2    1
     2     1    30    1
     3     1    31    1
     4     1    32    1
     5     2    22    1
     6     2     3   am
     7     3     4    2
     8     3     5    1
     9     5     6    1
    10     5    33    1
    11     5    34    1
    12     6     7    1
    13     6     8    1
    14     6    22    1
    15     8     9    1
    16     8    35    1
    17     8    36    1
    18     9    10   am
    19     9    37    1
    20    10    11    2
    21    10    12    1
    22    12    13    1
    23    12    38    1
    24    12    39    1
    25    13    21    1
    26    13    14    2
    27    14    15    1
    28    15    16    1
    29    15    40    1
    30    16    21   ar
    31    16    17   ar
    32    17    18   ar
    33    17    41    1
    34    18    19   ar
    35    18    42    1
    36    19    20   ar
    37    19    43    1
    38    20    21   ar
    39    20    44    1
    40    22    23    1
    41    22    24    1
    42    24    29   ar
    43    24    25   ar
    44    25    26   ar
    45    25    45    1
    46    26    27   ar
    47    26    46    1
    48    27    28   ar
    49    27    47    1
    50    28    29   ar
    51    28    48    1
    52    29    49    1
@<TRIPOS>SUBSTRUCTURE
     1 ZINC000373715094        1 TEMP              0 ****  ****    0 ROOT


##########                                Name:    ZINC001401207732
##########                DOCK_Rotatable_Bonds:                   8
##########                         Heavy_Atoms:                  23
##########                    Molecular_Weight:             337.446
##########                DOCK_Rotatable_Bonds:                   8
##########                       Formal_Charge:          -0.0199995
##########                     HBond_Acceptors:                   8
##########                        HBond_Donors:                   1
##########                         Heavy_Atoms:                  23
##########                          Grid_Score:          -28.855228
##########                     Grid_vdw_energy:          -29.289843
##########                      Grid_es_energy:            0.434614
##########           Internal_energy_repulsive:           17.064138

@<TRIPOS>MOLECULE
ZINC001401207732
 46 47 1 0 0
SMALL
USER_CHARGES


@<TRIPOS>ATOM
      1 C1          2.4959    4.0085   47.4662 C.3     1  ZINC001401207732   -0.0900
      2 C2          2.3604    2.5087   47.4068 C.2     1  ZINC001401207732    0.1500
      3 C3          1.3111    1.8415   47.9493 C.2     1  ZINC001401207732   -0.3000
      4 C4          0.1764    2.4433   48.6578 C.2     1  ZINC001401207732    0.6100
      5 O5         -0.6223    3.1332   48.0521 O.2     1  ZINC001401207732   -0.5200
      6 N6          0.0186    2.2322   49.9795 N.am    1  ZINC001401207732   -0.5900
      7 C7          0.9803    1.4016   50.7085 C.3     1  ZINC001401207732    0.0700
      8 C8         -1.1146    2.8333   50.6871 C.3     1  ZINC001401207732    0.1400
      9 H9         -1.1531    2.4473   51.7057 H       1  ZINC001401207732    0.1100
     10 C10        -0.9446    4.3534   50.7239 C.3     1  ZINC001401207732   -0.1600
     11 C11        -2.4142    2.4829   49.9595 C.3     1  ZINC001401207732    0.0500
     12 N12        -3.4139    2.0279   50.9348 N.3     1  ZINC001401207732   -0.6800
     13 C13        -4.7360    2.5951   50.6371 C.3     1  ZINC001401207732    0.1500
     14 C14        -5.8064    1.6997   51.2059 C.2     1  ZINC001401207732    0.1800
     15 N15        -6.6974    2.0257   52.1111 N.2     1  ZINC001401207732   -0.4800
     16 C16        -7.4362    0.9189   52.3067 C.2     1  ZINC001401207732    0.1800
     17 C17        -8.5965    0.7777   53.2580 C.3     1  ZINC001401207732   -0.0100
     18 C18        -8.3887    1.7048   54.4571 C.3     1  ZINC001401207732   -0.1500
     19 C19        -9.8936    1.1556   52.5399 C.3     1  ZINC001401207732   -0.1500
     20 N20        -6.9655   -0.0064   51.5251 N.2     1  ZINC001401207732   -0.3800
     21 O21        -6.0325    0.4235   50.8801 O.3     1  ZINC001401207732    0.0900
     22 S22         1.5594    0.1216   47.6568 S.3     1  ZINC001401207732    0.1800
     23 C23         3.0209    0.4623   46.8381 C.2     1  ZINC001401207732    0.0100
     24 N24         3.2450    1.7370   46.8267 N.2     1  ZINC001401207732   -0.4800
     25 H25         3.0393    4.2888   48.3685 H       1  ZINC001401207732    0.0800
     26 H26         3.0413    4.3589   46.5899 H       1  ZINC001401207732    0.0800
     27 H27         1.5050    4.4624   47.4829 H       1  ZINC001401207732    0.1000
     28 H28         0.7091    0.3514   50.5998 H       1  ZINC001401207732    0.0600
     29 H29         1.9796    1.5626   50.3041 H       1  ZINC001401207732    0.0800
     30 H30         0.9675    1.6726   51.7642 H       1  ZINC001401207732    0.0900
     31 H31        -1.7878    4.8006   51.2504 H       1  ZINC001401207732    0.0700
     32 H32        -0.0188    4.6030   51.2423 H       1  ZINC001401207732    0.0700
     33 H33        -0.9062    4.7395   49.7053 H       1  ZINC001401207732    0.0600
     34 H34        -2.2235    1.6890   49.2373 H       1  ZINC001401207732    0.0800
     35 H35        -2.7887    3.3647   49.4397 H       1  ZINC001401207732    0.0500
     36 H36        -3.1283    2.2514   51.8764 H       1  ZINC001401207732    0.3600
     37 H37        -4.8632    2.6727   49.5574 H       1  ZINC001401207732    0.1100
     38 H38        -4.8154    3.5859   51.0845 H       1  ZINC001401207732    0.0800
     39 H39        -8.6597   -0.2543   53.6033 H       1  ZINC001401207732    0.1000
     40 H40        -9.2279    1.6027   55.1452 H       1  ZINC001401207732    0.0700
     41 H41        -7.4646    1.4356   54.9687 H       1  ZINC001401207732    0.0600
     42 H42        -8.3255    2.7368   54.1119 H       1  ZINC001401207732    0.0600
     43 H43       -10.0416    0.4951   51.6856 H       1  ZINC001401207732    0.0600
     44 H44       -10.7328    1.0534   53.2279 H       1  ZINC001401207732    0.0700
     45 H45        -9.8304    2.1876   52.1947 H       1  ZINC001401207732    0.0600
     46 H46         3.6682   -0.2813   46.3971 H       1  ZINC001401207732    0.2000
@<TRIPOS>BOND
     1     1     2    1
     2     1    25    1
     3     1    26    1
     4     1    27    1
     5     2    24    1
     6     2     3    2
     7     3     4    1
     8     3    22    1
     9     4     5    2
    10     4     6   am
    11     6     7    1
    12     6     8    1
    13     7    28    1
    14     7    29    1
    15     7    30    1
    16     8     9    1
    17     8    10    1
    18     8    11    1
    19    10    31    1
    20    10    32    1
    21    10    33    1
    22    11    12    1
    23    11    34    1
    24    11    35    1
    25    12    13    1
    26    12    36    1
    27    13    14    1
    28    13    37    1
    29    13    38    1
    30    14    21    1
    31    14    15    2
    32    15    16    1
    33    16    17    1
    34    16    20    2
    35    17    18    1
    36    17    19    1
    37    17    39    1
    38    18    40    1
    39    18    41    1
    40    18    42    1
    41    19    43    1
    42    19    44    1
    43    19    45    1
    44    20    21    1
    45    22    23    1
    46    23    24    2
    47    23    46    1
@<TRIPOS>SUBSTRUCTURE
     1 ZINC001401207732        1 TEMP              0 ****  ****    0 ROOT


##########                                Name:    ZINC000291036115
##########                DOCK_Rotatable_Bonds:                   5
##########                         Heavy_Atoms:                  22
##########                    Molecular_Weight:             366.193
##########                DOCK_Rotatable_Bonds:                   5
##########                       Formal_Charge:                0.01
##########                     HBond_Acceptors:                   7
##########                        HBond_Donors:                   0
##########                         Heavy_Atoms:                  22
##########                          Grid_Score:          -28.843061
##########                     Grid_vdw_energy:          -28.045111
##########                      Grid_es_energy:           -0.797951
##########           Internal_energy_repulsive:            5.811382

@<TRIPOS>MOLECULE
ZINC000291036115
 35 37 1 0 0
SMALL
USER_CHARGES


@<TRIPOS>ATOM
      1 C1          0.4244    4.5752   50.7361 C.3     1  <0>        -0.1500
      2 C2         -0.8169    3.7881   50.3108 C.3     1  <0>        -0.0400
      3 H3         -1.5162    4.4563   49.8083 H       1  <0>         0.0900
      4 C4         -1.4865    3.1847   51.5470 C.3     1  <0>        -0.0200
      5 C5         -2.9833    3.2970   51.4126 C.2     1  <0>         0.1900
      6 N6         -3.7623    2.5286   50.6898 N.2     1  <0>        -0.4500
      7 C7         -5.0084    2.9993   50.8758 C.2     1  <0>         0.1500
      8 C8         -6.2696    2.4533   50.2573 C.3     1  <0>         0.2300
      9 N9         -6.8642    1.4609   51.1561 N.pl3   1  <0>        -0.3900
     10 C10        -6.6241    0.1382   51.1677 C.2     1  <0>         0.2600
     11 N11        -7.3480   -0.3975   52.1168 N.2     1  <0>        -0.5400
     12 C12        -8.0598    0.5472   52.7301 C.2     1  <0>         0.2000
     13 N13        -7.7937    1.7031   52.1807 N.2     1  <0>        -0.3100
     14 N14        -4.9253    4.0109   51.6871 N.2     1  <0>        -0.3600
     15 O15        -3.7711    4.1949   52.0118 O.3     1  <0>         0.0900
     16 C16        -0.4127    2.6834   49.3688 C.ar    1  <0>        -0.0900
     17 C17        -1.0969    2.5036   48.1813 C.ar    1  <0>        -0.0700
     18 C18        -0.7272    1.4911   47.3160 C.ar    1  <0>        -0.1400
     19 C19         0.3288    0.6566   47.6386 C.ar    1  <0>         0.1300
     20 F20         0.6912   -0.3331   46.7934 F       1  <0>        -0.1200
     21 C21         1.0143    0.8373   48.8293 C.ar    1  <0>        -0.1300
     22 Br22        2.4577   -0.3012   49.2722 Br      1  <0>        -0.0200
     23 C23         0.6458    1.8541   49.6906 C.ar    1  <0>        -0.0500
     24 H24         0.1321    5.3743   51.4174 H       1  <0>         0.0600
     25 H25         1.1238    3.9070   51.2385 H       1  <0>         0.0700
     26 H26         0.9015    5.0050   49.8554 H       1  <0>         0.0700
     27 H27        -1.2074    2.1348   51.6354 H       1  <0>         0.1200
     28 H28        -1.1602    3.7236   52.4365 H       1  <0>         0.1100
     29 H29        -6.9766    3.2668   50.0955 H       1  <0>         0.1300
     30 H30        -6.0322    1.9831   49.3030 H       1  <0>         0.1200
     31 H31        -5.9516   -0.3902   50.5081 H       1  <0>         0.2200
     32 H32        -8.7427    0.3849   53.5509 H       1  <0>         0.2200
     33 H33        -1.9211    3.1545   47.9296 H       1  <0>         0.1400
     34 H34        -1.2623    1.3510   46.3884 H       1  <0>         0.1500
     35 H35         1.1796    1.9954   50.6187 H       1  <0>         0.1400
@<TRIPOS>BOND
     1     1     2    1
     2     1    24    1
     3     1    25    1
     4     1    26    1
     5     2     3    1
     6     2     4    1
     7     2    16    1
     8     4     5    1
     9     4    27    1
    10     4    28    1
    11     5    15    1
    12     5     6    2
    13     6     7    1
    14     7     8    1
    15     7    14    2
    16     8     9    1
    17     8    29    1
    18     8    30    1
    19     9    13    1
    20     9    10    1
    21    10    11    2
    22    10    31    1
    23    11    12    1
    24    12    13    2
    25    12    32    1
    26    14    15    1
    27    16    23   ar
    28    16    17   ar
    29    17    18   ar
    30    17    33    1
    31    18    19   ar
    32    18    34    1
    33    19    20    1
    34    19    21   ar
    35    21    22    1
    36    21    23   ar
    37    23    35    1
@<TRIPOS>SUBSTRUCTURE
     1 <0>         1 TEMP              0 ****  ****    0 ROOT


##########                                Name:    ZINC000632456679
##########                DOCK_Rotatable_Bonds:                   6
##########                         Heavy_Atoms:                  24
##########                    Molecular_Weight:              374.82
##########                DOCK_Rotatable_Bonds:                   6
##########                       Formal_Charge:          -0.0299999
##########                     HBond_Acceptors:                   9
##########                        HBond_Donors:                   1
##########                         Heavy_Atoms:                  24
##########                          Grid_Score:          -28.814043
##########                     Grid_vdw_energy:          -28.969883
##########                      Grid_es_energy:            0.155840
##########           Internal_energy_repulsive:           38.491974

@<TRIPOS>MOLECULE
ZINC000632456679
 40 41 1 0 0
SMALL
USER_CHARGES


@<TRIPOS>ATOM
      1 C1          1.2595    2.8058   50.7971 C.3     1  ZINC000632456679   -0.1600
      2 C2         -0.0176    2.7058   49.9605 C.3     1  ZINC000632456679    0.1900
      3 C3         -0.0853    3.8867   48.9900 C.3     1  ZINC000632456679   -0.2000
      4 C4         -0.0080    1.3959   49.1700 C.3     1  ZINC000632456679   -0.6300
      5 S5          0.8956    1.6345   47.6153 S.o2    1  ZINC000632456679    2.4100
      6 C6          1.0742   -0.0699   47.0203 C.3     1  ZINC000632456679   -0.6600
      7 O7          0.0609    2.3447   46.7108 O.2     1  ZINC000632456679   -0.9300
      8 O8          2.1866    2.1465   47.9160 O.2     1  ZINC000632456679   -0.9300
      9 N9         -1.1846    2.7337   50.8456 N.am    1  ZINC000632456679   -0.7200
     10 C10        -2.4261    2.6574   50.3265 C.2     1  ZINC000632456679    0.6200
     11 O11        -2.5775    2.5671   49.1236 O.2     1  ZINC000632456679   -0.5000
     12 C12        -3.6012    2.6837   51.2180 C.2     1  ZINC000632456679   -0.0900
     13 C13        -4.8795    2.3225   50.8988 C.2     1  ZINC000632456679   -0.1300
     14 C14        -5.6034    2.5369   52.1039 C.2     1  ZINC000632456679    0.0400
     15 C15        -7.0521    2.3032   52.3254 C.ar    1  ZINC000632456679   -0.0500
     16 C16        -7.8547    3.3214   52.8352 C.ar    1  ZINC000632456679   -0.0600
     17 C17        -9.2016    3.0995   53.0396 C.ar    1  ZINC000632456679   -0.1100
     18 C18        -9.7570    1.8686   52.7401 C.ar    1  ZINC000632456679   -0.0700
     19 C19        -8.9669    0.8519   52.2334 C.ar    1  ZINC000632456679   -0.0800
     20 Cl20       -9.6719   -0.6900   51.8602 Cl      1  ZINC000632456679   -0.0400
     21 C21        -7.6166    1.0647   52.0185 C.ar    1  ZINC000632456679    0.1400
     22 F22        -6.8448    0.0725   51.5235 F       1  ZINC000632456679   -0.1100
     23 N23        -4.7368    2.9809   52.9794 N.2     1  ZINC000632456679   -0.3200
     24 O24        -3.6260    3.0626   52.5099 O.3     1  ZINC000632456679    0.1400
     25 H25         1.2528    3.7391   51.3602 H       1  ZINC000632456679    0.0900
     26 H26         1.3077    1.9646   51.4885 H       1  ZINC000632456679    0.0600
     27 H27         2.1279    2.7851   50.1386 H       1  ZINC000632456679    0.0700
     28 H28         0.7830    3.8659   48.3314 H       1  ZINC000632456679    0.0800
     29 H29        -0.9950    3.8154   48.3938 H       1  ZINC000632456679    0.0800
     30 H30        -0.0920    4.8199   49.5531 H       1  ZINC000632456679    0.0900
     31 H31         0.4806    0.6197   49.7589 H       1  ZINC000632456679    0.1600
     32 H32        -1.0329    1.0955   48.9520 H       1  ZINC000632456679    0.1400
     33 H33         0.0873   -0.5103   46.8781 H       1  ZINC000632456679    0.1300
     34 H34         1.6119   -0.0692   46.0721 H       1  ZINC000632456679    0.1300
     35 H35         1.6306   -0.6542   47.7531 H       1  ZINC000632456679    0.1300
     36 H36        -1.0638    2.8070   51.8053 H       1  ZINC000632456679    0.4200
     37 H37        -5.2529    1.9598   49.9525 H       1  ZINC000632456679    0.1900
     38 H38        -7.4235    4.2832   53.0705 H       1  ZINC000632456679    0.1500
     39 H39        -9.8235    3.8891   53.4348 H       1  ZINC000632456679    0.1500
     40 H40       -10.8113    1.7004   52.9028 H       1  ZINC000632456679    0.1500
@<TRIPOS>BOND
     1     1     2    1
     2     1    25    1
     3     1    26    1
     4     1    27    1
     5     2     3    1
     6     2     4    1
     7     2     9    1
     8     3    28    1
     9     3    29    1
    10     3    30    1
    11     4     5    1
    12     4    31    1
    13     4    32    1
    14     5     6    1
    15     5     7    2
    16     5     8    2
    17     6    33    1
    18     6    34    1
    19     6    35    1
    20     9    10   am
    21     9    36    1
    22    10    11    2
    23    10    12    1
    24    12    24    1
    25    12    13    2
    26    13    14    1
    27    13    37    1
    28    14    15    1
    29    14    23    2
    30    15    21   ar
    31    15    16   ar
    32    16    17   ar
    33    16    38    1
    34    17    18   ar
    35    17    39    1
    36    18    19   ar
    37    18    40    1
    38    19    20    1
    39    19    21   ar
    40    21    22    1
    41    23    24    1
@<TRIPOS>SUBSTRUCTURE
     1 ZINC000632456679        1 TEMP              0 ****  ****    0 ROOT


##########                                Name:    ZINC001181473921
##########                DOCK_Rotatable_Bonds:                   9
##########                         Heavy_Atoms:                  24
##########                    Molecular_Weight:             357.431
##########                DOCK_Rotatable_Bonds:                   9
##########                       Formal_Charge:        -5.96046e-08
##########                     HBond_Acceptors:                   9
##########                        HBond_Donors:                   4
##########                         Heavy_Atoms:                  24
##########                          Grid_Score:          -28.810463
##########                     Grid_vdw_energy:          -26.197477
##########                      Grid_es_energy:           -2.612986
##########           Internal_energy_repulsive:           13.251723

@<TRIPOS>MOLECULE
ZINC001181473921
 47 48 1 0 0
SMALL
USER_CHARGES


@<TRIPOS>ATOM
      1 C1         -9.3777    3.4490   60.9711 C.3     1  ZINC001181473921   -0.1300
      2 C2         -8.8488    2.0956   61.3705 C.2     1  ZINC001181473921    0.1900
      3 C3         -8.6313    1.8238   62.6751 C.2     1  ZINC001181473921   -0.2400
      4 C4         -8.1373    0.5598   63.0545 C.2     1  ZINC001181473921    0.2500
      5 O5         -7.9143    0.2719   64.3592 O.3     1  ZINC001181473921   -0.4600
      6 C6         -7.8841   -0.3820   62.0746 C.2     1  ZINC001181473921   -0.3700
      7 C7         -8.1254   -0.0537   60.7354 C.2     1  ZINC001181473921    0.5300
      8 O8         -7.9073   -0.8746   59.8581 O.2     1  ZINC001181473921   -0.5500
      9 N9         -8.6025    1.1629   60.4134 N.am    1  ZINC001181473921   -0.5000
     10 C10        -8.8502    1.4908   59.0071 C.3     1  ZINC001181473921    0.1000
     11 C11       -10.2700    1.0662   58.6270 C.3     1  ZINC001181473921   -0.1600
     12 C12       -10.5000    1.3365   57.1622 C.2     1  ZINC001181473921    0.5200
     13 O13       -10.8111    2.4489   56.7925 O.2     1  ZINC001181473921   -0.5300
     14 N14       -10.3600    0.3421   56.2633 N.am    1  ZINC001181473921   -0.7200
     15 C15       -10.5853    0.6045   54.8397 C.3     1  ZINC001181473921    0.1400
     16 H16       -11.4037    1.3115   54.7036 H       1  ZINC001181473921    0.1000
     17 C17       -10.8657   -0.7137   54.0763 C.3     1  ZINC001181473921   -0.1300
     18 C18       -10.4760   -0.3963   52.6178 C.3     1  ZINC001181473921   -0.1500
     19 C19        -9.4743    0.7703   52.6743 C.3     1  ZINC001181473921   -0.0800
     20 H20        -9.8716    1.6300   52.1346 H       1  ZINC001181473921    0.0900
     21 C21        -8.1369    0.3427   52.0664 C.3     1  ZINC001181473921   -0.6200
     22 S22        -7.1741    1.8158   51.6265 S.o2    1  ZINC001181473921    2.6100
     23 N23        -6.5555    2.3503   53.0666 N.am    1  ZINC001181473921   -1.2500
     24 O24        -6.0295    1.4545   50.8659 O.2     1  ZINC001181473921   -0.9600
     25 O25        -8.0336    2.8651   51.2032 O.2     1  ZINC001181473921   -0.9600
     26 C26        -9.2916    1.1261   54.1663 C.3     1  ZINC001181473921   -0.1200
     27 H27       -10.2885    3.3247   60.3853 H       1  ZINC001181473921    0.0900
     28 H28        -9.5978    4.0315   61.8658 H       1  ZINC001181473921    0.1000
     29 H29        -8.6295    3.9696   60.3736 H       1  ZINC001181473921    0.0900
     30 H30        -8.8350    2.5732   63.4257 H       1  ZINC001181473921    0.1500
     31 H31        -7.1037   -0.2309   64.5180 H       1  ZINC001181473921    0.4100
     32 H32        -7.5049   -1.3582   62.3388 H       1  ZINC001181473921    0.1500
     33 H33        -8.7405    2.5651   58.8597 H       1  ZINC001181473921    0.1000
     34 H34        -8.1326    0.9627   58.3792 H       1  ZINC001181473921    0.1100
     35 H35       -10.3961    0.0016   58.8240 H       1  ZINC001181473921    0.1100
     36 H36       -10.9893    1.6328   59.2182 H       1  ZINC001181473921    0.1000
     37 H37       -10.1100   -0.5473   56.5590 H       1  ZINC001181473921    0.4000
     38 H38       -10.2478   -1.5210   54.4693 H       1  ZINC001181473921    0.0700
     39 H39       -11.9221   -0.9745   54.1408 H       1  ZINC001181473921    0.0800
     40 H40       -10.0092   -1.2674   52.1581 H       1  ZINC001181473921    0.0900
     41 H41       -11.3594   -0.1029   52.0506 H       1  ZINC001181473921    0.0800
     42 H42        -7.5813   -0.2512   52.7921 H       1  ZINC001181473921    0.1400
     43 H43        -8.3184   -0.2532   51.1719 H       1  ZINC001181473921    0.1400
     44 H44        -5.9937    3.1407   53.0896 H       1  ZINC001181473921    0.4100
     45 H45        -6.7548    1.8730   53.8872 H       1  ZINC001181473921    0.4200
     46 H46        -9.1981    2.2047   54.2925 H       1  ZINC001181473921    0.0800
     47 H47        -8.4198    0.6161   54.5761 H       1  ZINC001181473921    0.0800
@<TRIPOS>BOND
     1     1     2    1
     2     1    27    1
     3     1    28    1
     4     1    29    1
     5     2     9    1
     6     2     3    2
     7     3     4    1
     8     3    30    1
     9     4     5    1
    10     4     6    2
    11     5    31    1
    12     6     7    1
    13     6    32    1
    14     7     8    2
    15     7     9   am
    16     9    10    1
    17    10    11    1
    18    10    33    1
    19    10    34    1
    20    11    12    1
    21    11    35    1
    22    11    36    1
    23    12    13    2
    24    12    14   am
    25    14    15    1
    26    14    37    1
    27    15    16    1
    28    15    26    1
    29    15    17    1
    30    17    18    1
    31    17    38    1
    32    17    39    1
    33    18    19    1
    34    18    40    1
    35    18    41    1
    36    19    20    1
    37    19    21    1
    38    19    26    1
    39    21    22    1
    40    21    42    1
    41    21    43    1
    42    22    23   am
    43    22    24    2
    44    22    25    2
    45    23    44    1
    46    23    45    1
    47    26    46    1
    48    26    47    1
@<TRIPOS>SUBSTRUCTURE
     1 ZINC001181473921        1 TEMP              0 ****  ****    0 ROOT


##########                                Name:    ZINC000052999724
##########                DOCK_Rotatable_Bonds:                   6
##########                         Heavy_Atoms:                  25
##########                    Molecular_Weight:             398.571
##########                DOCK_Rotatable_Bonds:                   6
##########                       Formal_Charge:           0.0399994
##########                     HBond_Acceptors:                   8
##########                        HBond_Donors:                   1
##########                         Heavy_Atoms:                  25
##########                          Grid_Score:          -28.804585
##########                     Grid_vdw_energy:          -27.322334
##########                      Grid_es_energy:           -1.482249
##########           Internal_energy_repulsive:           10.593684

@<TRIPOS>MOLECULE
ZINC000052999724
 47 49 1 0 0
SMALL
USER_CHARGES


@<TRIPOS>ATOM
      1 C1        -14.6762   -0.6026   54.9496 C.3     1  ZINC000052999724   -0.1400
      2 C2        -13.5598    0.3912   54.6229 C.3     1  ZINC000052999724   -0.0400
      3 C3        -14.1426    1.8034   54.5391 C.3     1  ZINC000052999724   -0.1400
      4 C4        -12.5122    0.3435   55.7050 C.2     1  ZINC000052999724   -0.0400
      5 C5        -11.2431   -0.1209   55.5022 C.2     1  ZINC000052999724   -0.2600
      6 C6        -10.7172   -0.6312   54.2327 C.2     1  ZINC000052999724    0.6000
      7 O7        -10.8911   -1.7961   53.9263 O.2     1  ZINC000052999724   -0.5200
      8 N8        -10.0409    0.1897   53.4048 N.am    1  ZINC000052999724   -0.6000
      9 C9         -9.8176    1.5968   53.7636 C.3     1  ZINC000052999724    0.1100
     10 C10        -8.3183    1.8972   53.6717 C.3     1  ZINC000052999724   -0.1400
     11 C11        -7.8100    1.5152   52.2796 C.3     1  ZINC000052999724    0.1500
     12 N12        -6.3833    1.8319   52.1772 N.am    1  ZINC000052999724   -1.1100
     13 S13        -5.8246    2.7331   50.9052 S.o2    1  ZINC000052999724    2.7200
     14 O14        -6.0106    1.9413   49.7400 O.2     1  ZINC000052999724   -0.9500
     15 O15        -6.3800    4.0321   51.0590 O.2     1  ZINC000052999724   -0.9400
     16 C16        -4.0839    2.9083   51.1149 C.2     1  ZINC000052999724   -0.8000
     17 C17        -3.1819    2.8546   50.1337 C.2     1  ZINC000052999724    0.0100
     18 C18        -1.8687    3.0201   50.5390 C.2     1  ZINC000052999724   -0.1600
     19 C19        -1.7043    3.2081   51.8493 C.2     1  ZINC000052999724   -0.1700
     20 S20        -3.2706    3.1884   52.6491 S.3     1  ZINC000052999724    0.2100
     21 C21        -8.0171    0.0160   52.0526 C.3     1  ZINC000052999724   -0.1500
     22 C22        -9.5078   -0.3072   52.1290 C.3     1  ZINC000052999724    0.1100
     23 S23       -10.3420   -0.0076   57.0079 S.3     1  ZINC000052999724    0.2100
     24 C24       -11.6918    0.6468   57.8208 C.2     1  ZINC000052999724   -0.2400
     25 C25       -12.7363    0.7682   56.9932 C.2     1  ZINC000052999724   -0.1300
     26 H26       -14.2611   -1.6086   55.0092 H       1  ZINC000052999724    0.0600
     27 H27       -15.1290   -0.3391   55.9054 H       1  ZINC000052999724    0.0600
     28 H28       -15.4340   -0.5680   54.1667 H       1  ZINC000052999724    0.0600
     29 H29       -13.1071    0.1278   53.6670 H       1  ZINC000052999724    0.0800
     30 H30       -14.5953    2.0669   55.4950 H       1  ZINC000052999724    0.0600
     31 H31       -13.3472    2.5115   54.3063 H       1  ZINC000052999724    0.0600
     32 H32       -14.9003    1.8380   53.7563 H       1  ZINC000052999724    0.0600
     33 H33       -10.3623    2.2408   53.0733 H       1  ZINC000052999724    0.0800
     34 H34       -10.1640    1.7736   54.7820 H       1  ZINC000052999724    0.0900
     35 H35        -8.1491    2.9605   53.8417 H       1  ZINC000052999724    0.0900
     36 H36        -7.7845    1.3183   54.4254 H       1  ZINC000052999724    0.0800
     37 H37        -8.3617    2.0761   51.5252 H       1  ZINC000052999724    0.0900
     38 H38        -5.7661    1.5138   52.8543 H       1  ZINC000052999724    0.4200
     39 H39        -3.4554    2.6940   49.1014 H       1  ZINC000052999724    0.1600
     40 H40        -1.0400    2.9982   49.8468 H       1  ZINC000052999724    0.1500
     41 H41        -0.7548    3.3539   52.3430 H       1  ZINC000052999724    0.1800
     42 H42        -7.6336   -0.2596   51.0703 H       1  ZINC000052999724    0.1000
     43 H43        -7.4860   -0.5451   52.8216 H       1  ZINC000052999724    0.0800
     44 H44        -9.6514   -1.3860   52.0668 H       1  ZINC000052999724    0.1000
     45 H45       -10.0301    0.1811   51.3064 H       1  ZINC000052999724    0.0800
     46 H46       -11.7008    0.9290   58.8632 H       1  ZINC000052999724    0.1700
     47 H47       -13.6882    1.1634   57.3157 H       1  ZINC000052999724    0.1400
@<TRIPOS>BOND
     1     1     2    1
     2     1    26    1
     3     1    27    1
     4     1    28    1
     5     2     3    1
     6     2     4    1
     7     2    29    1
     8     3    30    1
     9     3    31    1
    10     3    32    1
    11     4    25    1
    12     4     5    2
    13     5     6    1
    14     5    23    1
    15     6     7    2
    16     6     8   am
    17     8    22    1
    18     8     9    1
    19     9    10    1
    20     9    33    1
    21     9    34    1
    22    10    11    1
    23    10    35    1
    24    10    36    1
    25    11    12    1
    26    11    21    1
    27    11    37    1
    28    12    13   am
    29    12    38    1
    30    13    14    2
    31    13    15    2
    32    13    16    1
    33    16    20    1
    34    16    17    2
    35    17    18    1
    36    17    39    1
    37    18    19    2
    38    18    40    1
    39    19    20    1
    40    19    41    1
    41    21    22    1
    42    21    42    1
    43    21    43    1
    44    22    44    1
    45    22    45    1
    46    23    24    1
    47    24    25    2
    48    24    46    1
    49    25    47    1
@<TRIPOS>SUBSTRUCTURE
     1 ZINC000052999724        1 TEMP              0 ****  ****    0 ROOT


##########                                Name:    ZINC000962730513
##########                DOCK_Rotatable_Bonds:                   6
##########                         Heavy_Atoms:                  24
##########                    Molecular_Weight:             342.465
##########                DOCK_Rotatable_Bonds:                   6
##########                       Formal_Charge:         -0.00999998
##########                     HBond_Acceptors:                   6
##########                        HBond_Donors:                   1
##########                         Heavy_Atoms:                  24
##########                          Grid_Score:          -28.797195
##########                     Grid_vdw_energy:          -28.663528
##########                      Grid_es_energy:           -0.133667
##########           Internal_energy_repulsive:           11.376776

@<TRIPOS>MOLECULE
ZINC000962730513
 46 49 1 0 0
SMALL
USER_CHARGES


@<TRIPOS>ATOM
      1 C1          5.6478    1.7690   45.4622 C.3     1  ZINC000962730513   -0.1400
      2 C2          4.1357    1.8654   45.6748 C.3     1  ZINC000962730513   -0.0800
      3 C3          3.4900    2.4363   44.4386 C.2     1  ZINC000962730513   -0.0100
      4 C4          2.3121    3.1289   44.4580 C.2     1  ZINC000962730513   -0.2800
      5 C5          1.5146    3.4170   45.6537 C.2     1  ZINC000962730513    0.6000
      6 O6          0.9317    4.4806   45.7547 O.2     1  ZINC000962730513   -0.5200
      7 N7          1.4268    2.5040   46.6411 N.am    1  ZINC000962730513   -0.7000
      8 C8          0.6311    2.7926   47.8370 C.3     1  ZINC000962730513    0.1200
      9 H9          0.8892    3.7123   48.3619 H       1  ZINC000962730513    0.1400
     10 C10         0.1724    1.6030   48.6826 C.3     1  ZINC000962730513   -0.1700
     11 H11         0.4995    0.5975   48.4177 H       1  ZINC000962730513    0.1200
     12 C12        -0.2200    1.8634   50.1528 C.3     1  ZINC000962730513    0.0700
     13 N13        -1.6584    2.2304   50.0971 N.3     1  ZINC000962730513   -0.5000
     14 C14        -2.0592    2.9737   51.2992 C.3     1  ZINC000962730513    0.1100
     15 C15        -3.5319    2.7718   51.5470 C.ar    1  ZINC000962730513    0.3200
     16 N16        -4.2480    2.1151   50.6566 N.ar    1  ZINC000962730513   -0.5100
     17 C17        -5.5437    1.9186   50.8402 C.ar    1  ZINC000962730513    0.1500
     18 C18        -6.1449    2.4137   51.9866 C.ar    1  ZINC000962730513   -0.1900
     19 C19        -7.6175    2.2115   52.2346 C.3     1  ZINC000962730513   -0.1100
     20 C20        -5.3590    3.0991   52.8996 C.ar    1  ZINC000962730513    0.1500
     21 N21        -4.0684    3.2523   52.6508 N.ar    1  ZINC000962730513   -0.5000
     22 C22        -1.7716    3.0800   48.8836 C.3     1  ZINC000962730513    0.0700
     23 C23        -0.8420    2.3796   47.8203 C.3     1  ZINC000962730513   -0.1700
     24 H24        -1.3155    1.9656   46.9301 H       1  ZINC000962730513    0.1300
     25 S25         1.9067    3.6195   42.8189 S.3     1  ZINC000962730513    0.1900
     26 C26         3.3155    2.8825   42.1999 C.2     1  ZINC000962730513   -0.2200
     27 C27         4.0301    2.3172   43.1802 C.2     1  ZINC000962730513   -0.1500
     28 H28         5.8544    1.1195   44.6115 H       1  ZINC000962730513    0.0600
     29 H29         6.0514    2.7626   45.2672 H       1  ZINC000962730513    0.0500
     30 H30         6.1149    1.3562   46.3563 H       1  ZINC000962730513    0.0600
     31 H31         3.7322    0.8718   45.8698 H       1  ZINC000962730513    0.1000
     32 H32         3.9291    2.5148   46.5255 H       1  ZINC000962730513    0.0700
     33 H33         1.8904    1.6558   46.5601 H       1  ZINC000962730513    0.4000
     34 H34        -0.0807    0.9616   50.7490 H       1  ZINC000962730513    0.0900
     35 H35         0.3665    2.6856   50.5629 H       1  ZINC000962730513    0.0500
     36 H36        -1.4932    2.6099   52.1568 H       1  ZINC000962730513    0.1000
     37 H37        -1.8572    4.0349   51.1543 H       1  ZINC000962730513    0.0700
     38 H38        -6.1248    1.3797   50.1065 H       1  ZINC000962730513    0.1700
     39 H39        -7.7694    1.2812   52.7818 H       1  ZINC000962730513    0.0800
     40 H40        -8.0051    3.0451   52.8203 H       1  ZINC000962730513    0.0700
     41 H41        -8.1431    2.1621   51.2810 H       1  ZINC000962730513    0.0700
     42 H42        -5.7934    3.4995   53.8037 H       1  ZINC000962730513    0.1700
     43 H43        -2.8004    3.0941   48.5240 H       1  ZINC000962730513    0.0800
     44 H44        -1.4279    4.0925   49.0950 H       1  ZINC000962730513    0.0600
     45 H45         3.5954    2.8765   41.1569 H       1  ZINC000962730513    0.1700
     46 H46         4.9589    1.7982   42.9949 H       1  ZINC000962730513    0.1500
@<TRIPOS>BOND
     1     1     2    1
     2     1    28    1
     3     1    29    1
     4     1    30    1
     5     2     3    1
     6     2    31    1
     7     2    32    1
     8     3    27    1
     9     3     4    2
    10     4     5    1
    11     4    25    1
    12     5     6    2
    13     5     7   am
    14     7     8    1
    15     7    33    1
    16     8     9    1
    17     8    23    1
    18     8    10    1
    19    10    11    1
    20    10    23    1
    21    10    12    1
    22    12    13    1
    23    12    34    1
    24    12    35    1
    25    13    14    1
    26    13    22    1
    27    14    15    1
    28    14    36    1
    29    14    37    1
    30    15    21   ar
    31    15    16   ar
    32    16    17   ar
    33    17    18   ar
    34    17    38    1
    35    18    19    1
    36    18    20   ar
    37    19    39    1
    38    19    40    1
    39    19    41    1
    40    20    21   ar
    41    20    42    1
    42    22    23    1
    43    22    43    1
    44    22    44    1
    45    23    24    1
    46    25    26    1
    47    26    27    2
    48    26    45    1
    49    27    46    1
@<TRIPOS>SUBSTRUCTURE
     1 ZINC000962730513        1 TEMP              0 ****  ****    0 ROOT


##########                                Name:    ZINC000182378855
##########                DOCK_Rotatable_Bonds:                   8
##########                         Heavy_Atoms:                  27
##########                    Molecular_Weight:              394.83
##########                DOCK_Rotatable_Bonds:                   8
##########                       Formal_Charge:          -0.0200001
##########                     HBond_Acceptors:                   8
##########                        HBond_Donors:                   1
##########                         Heavy_Atoms:                  27
##########                          Grid_Score:          -28.786283
##########                     Grid_vdw_energy:          -27.743061
##########                      Grid_es_energy:           -1.043222
##########           Internal_energy_repulsive:           12.182861

@<TRIPOS>MOLECULE
ZINC000182378855
 47 49 1 0 0
SMALL
USER_CHARGES


@<TRIPOS>ATOM
      1 C1         -1.2315    2.4606   58.4910 C.3     1  ZINC000182378855    0.0300
      2 O2         -0.8924    3.2654   57.3599 O.3     1  ZINC000182378855   -0.3900
      3 C3         -0.9066    2.5584   56.1182 C.3     1  ZINC000182378855    0.0600
      4 C4         -2.1641    2.9339   55.3318 C.3     1  ZINC000182378855    0.0700
      5 O5         -3.3017    2.3018   55.9223 O.3     1  ZINC000182378855   -0.2900
      6 C6         -4.3413    3.1024   56.2675 C.ar    1  ZINC000182378855    0.3300
      7 C7         -5.6322    2.7482   55.8987 C.ar    1  ZINC000182378855   -0.1300
      8 C8         -6.6914    3.5823   56.2612 C.ar    1  ZINC000182378855   -0.0600
      9 C9         -8.0859    3.2457   55.8906 C.2     1  ZINC000182378855    0.5600
     10 O10        -8.9876    4.0163   56.1546 O.2     1  ZINC000182378855   -0.5200
     11 N11        -8.3543    2.0849   55.2607 N.am    1  ZINC000182378855   -0.7100
     12 C12        -9.7329    1.7528   54.8927 C.3     1  ZINC000182378855    0.1200
     13 H13       -10.3519    2.6499   54.8858 H       1  ZINC000182378855    0.1100
     14 C14       -10.3143    0.7013   55.8642 C.3     1  ZINC000182378855   -0.1700
     15 C15       -10.6361   -0.5085   54.9591 C.3     1  ZINC000182378855    0.0400
     16 O16        -9.7632   -0.3583   53.8182 O.3     1  ZINC000182378855   -0.3600
     17 C17        -9.7721    1.0538   53.5156 C.3     1  ZINC000182378855    0.1100
     18 H18       -10.6830    1.3215   52.9801 H       1  ZINC000182378855    0.1000
     19 C19        -8.5572    1.4242   52.7045 C.ar    1  ZINC000182378855   -0.0500
     20 C20        -7.6458    0.4504   52.3418 C.ar    1  ZINC000182378855   -0.1100
     21 C21        -6.5335    0.7874   51.5929 C.ar    1  ZINC000182378855   -0.0800
     22 C22        -6.3260    2.1014   51.2154 C.ar    1  ZINC000182378855   -0.0700
     23 Cl23       -4.9262    2.5258   50.2806 Cl      1  ZINC000182378855   -0.0400
     24 C24        -7.2366    3.0791   51.5835 C.ar    1  ZINC000182378855    0.1200
     25 F25        -7.0357    4.3633   51.2152 F       1  ZINC000182378855   -0.1200
     26 C26        -8.3523    2.7387   52.3285 C.ar    1  ZINC000182378855   -0.1300
     27 C27        -6.4008    4.7446   56.9843 C.ar    1  ZINC000182378855   -0.1900
     28 C28        -5.0888    5.0224   57.3105 C.ar    1  ZINC000182378855    0.1400
     29 N29        -4.1141    4.2080   56.9557 N.ar    1  ZINC000182378855   -0.5200
     30 H30        -0.5193    1.6402   58.5797 H       1  ZINC000182378855    0.0400
     31 H31        -1.1980    3.0703   59.3938 H       1  ZINC000182378855    0.0900
     32 H32        -2.2360    2.0574   58.3619 H       1  ZINC000182378855    0.0400
     33 H33        -0.0226    2.8244   55.5385 H       1  ZINC000182378855    0.0600
     34 H34        -0.9054    1.4856   56.3109 H       1  ZINC000182378855    0.0700
     35 H35        -2.2972    4.0155   55.3539 H       1  ZINC000182378855    0.0800
     36 H36        -2.0595    2.6017   54.2989 H       1  ZINC000182378855    0.0800
     37 H37        -5.8140    1.8420   55.3400 H       1  ZINC000182378855    0.1600
     38 H38        -7.6346    1.4692   55.0511 H       1  ZINC000182378855    0.4000
     39 H39        -9.5759    0.4286   56.6182 H       1  ZINC000182378855    0.0900
     40 H40       -11.2221    1.0777   56.3356 H       1  ZINC000182378855    0.0900
     41 H41       -10.4209   -1.4408   55.4812 H       1  ZINC000182378855    0.1000
     42 H42       -11.6798   -0.4816   54.6465 H       1  ZINC000182378855    0.0700
     43 H43        -7.8047   -0.5752   52.6404 H       1  ZINC000182378855    0.1500
     44 H44        -5.8244    0.0249   51.3064 H       1  ZINC000182378855    0.1500
     45 H45        -9.0628    3.4997   52.6157 H       1  ZINC000182378855    0.1500
     46 H46        -7.1928    5.4151   57.2835 H       1  ZINC000182378855    0.1400
     47 H47        -4.8575    5.9177   57.8685 H       1  ZINC000182378855    0.1700
@<TRIPOS>BOND
     1     1     2    1
     2     1    30    1
     3     1    31    1
     4     1    32    1
     5     2     3    1
     6     3     4    1
     7     3    33    1
     8     3    34    1
     9     4     5    1
    10     4    35    1
    11     4    36    1
    12     5     6    1
    13     6    29   ar
    14     6     7   ar
    15     7     8   ar
    16     7    37    1
    17     8     9    1
    18     8    27   ar
    19     9    10    2
    20     9    11   am
    21    11    12    1
    22    11    38    1
    23    12    13    1
    24    12    17    1
    25    12    14    1
    26    14    15    1
    27    14    39    1
    28    14    40    1
    29    15    16    1
    30    15    41    1
    31    15    42    1
    32    16    17    1
    33    17    18    1
    34    17    19    1
    35    19    26   ar
    36    19    20   ar
    37    20    21   ar
    38    20    43    1
    39    21    22   ar
    40    21    44    1
    41    22    23    1
    42    22    24   ar
    43    24    25    1
    44    24    26   ar
    45    26    45    1
    46    27    28   ar
    47    27    46    1
    48    28    29   ar
    49    28    47    1
@<TRIPOS>SUBSTRUCTURE
     1 ZINC000182378855        1 TEMP              0 ****  ****    0 ROOT


##########                                Name:    ZINC000410354665
##########                DOCK_Rotatable_Bonds:                   7
##########                         Heavy_Atoms:                  29
##########                    Molecular_Weight:             417.889
##########                DOCK_Rotatable_Bonds:                   7
##########                       Formal_Charge:        -3.72529e-08
##########                     HBond_Acceptors:                   7
##########                        HBond_Donors:                   1
##########                         Heavy_Atoms:                  29
##########                          Grid_Score:          -28.782360
##########                     Grid_vdw_energy:          -28.584810
##########                      Grid_es_energy:           -0.197551
##########           Internal_energy_repulsive:           27.276632

@<TRIPOS>MOLECULE
ZINC000410354665
 53 56 1 0 0
SMALL
USER_CHARGES


@<TRIPOS>ATOM
      1 C1        -11.6786   -2.1870   55.1398 C.3     1  ZINC000410354665    0.0200
      2 O2        -12.2922   -1.5069   56.2366 O.3     1  ZINC000410354665   -0.3000
      3 C3        -11.5084   -1.2443   57.3166 C.ar    1  ZINC000410354665    0.0900
      4 C4        -10.4396   -0.3776   57.1997 C.ar    1  ZINC000410354665   -0.1100
      5 C5         -9.6365   -0.1096   58.3118 C.ar    1  ZINC000410354665   -0.1400
      6 C6         -8.4931    0.8164   58.1925 C.2     1  ZINC000410354665    0.5700
      7 O7         -7.6225    0.8199   59.0412 O.2     1  ZINC000410354665   -0.5300
      8 N8         -8.4144    1.6580   57.1428 N.am    1  ZINC000410354665   -0.7200
      9 C9         -7.2787    2.5758   57.0235 C.3     1  ZINC000410354665    0.1700
     10 C10        -6.8386    2.6460   55.5839 C.ar    1  ZINC000410354665   -0.1000
     11 C11        -7.6640    2.1630   54.5859 C.ar    1  ZINC000410354665   -0.0900
     12 C12        -7.2624    2.2237   53.2637 C.ar    1  ZINC000410354665   -0.0300
     13 Cl13       -8.3013    1.6156   52.0128 Cl      1  ZINC000410354665   -0.0400
     14 C14        -6.0299    2.7708   52.9362 C.ar    1  ZINC000410354665    0.0700
     15 O15        -5.6446    2.8169   51.6314 O.3     1  ZINC000410354665   -0.2900
     16 C16        -4.5699    3.7063   51.3088 C.3     1  ZINC000410354665    0.0200
     17 C17        -3.4559    3.5103   52.3460 C.3     1  ZINC000410354665    0.0200
     18 O18        -3.9918    3.8049   53.6405 O.3     1  ZINC000410354665   -0.3000
     19 C19        -5.2025    3.2597   53.9399 C.ar    1  ZINC000410354665    0.0600
     20 C20        -5.6129    3.1986   55.2633 C.ar    1  ZINC000410354665   -0.0900
     21 C21        -9.9183   -0.7194   59.5363 C.ar    1  ZINC000410354665   -0.0800
     22 C22       -10.9863   -1.5838   59.6461 C.ar    1  ZINC000410354665   -0.1900
     23 C23       -11.7875   -1.8456   58.5434 C.ar    1  ZINC000410354665    0.1400
     24 O24       -12.8384   -2.6980   58.6566 O.3     1  ZINC000410354665   -0.2900
     25 C25       -14.0617   -2.1564   59.1590 C.3     1  ZINC000410354665    0.0700
     26 C26       -14.0533   -2.1439   60.7078 C.3     1  ZINC000410354665   -0.1500
     27 C27       -15.0807   -1.0353   61.0462 C.3     1  ZINC000410354665   -0.1200
     28 C28       -14.8422    0.0432   59.9693 C.3     1  ZINC000410354665   -0.1200
     29 C29       -14.1943   -0.6697   58.7694 C.3     1  ZINC000410354665   -0.1200
     30 H30       -10.8484   -1.5909   54.7611 H       1  ZINC000410354665    0.0600
     31 H31       -11.3074   -3.1556   55.4746 H       1  ZINC000410354665    0.0600
     32 H32       -12.4121   -2.3334   54.3469 H       1  ZINC000410354665    0.1000
     33 H33       -10.2246    0.0917   56.2511 H       1  ZINC000410354665    0.1500
     34 H34        -9.1095    1.6561   56.4664 H       1  ZINC000410354665    0.4000
     35 H35        -7.5766    3.5685   57.3612 H       1  ZINC000410354665    0.0800
     36 H36        -6.4540    2.2153   57.6383 H       1  ZINC000410354665    0.0900
     37 H37        -8.6236    1.7371   54.8390 H       1  ZINC000410354665    0.1500
     38 H38        -4.1897    3.4774   50.3132 H       1  ZINC000410354665    0.1300
     39 H39        -4.9238    4.7367   51.3398 H       1  ZINC000410354665    0.0800
     40 H40        -3.1061    2.4783   52.3192 H       1  ZINC000410354665    0.0800
     41 H41        -2.6283    4.1853   52.1284 H       1  ZINC000410354665    0.1300
     42 H42        -4.9722    3.5798   56.0448 H       1  ZINC000410354665    0.1400
     43 H43        -9.2992   -0.5138   60.3970 H       1  ZINC000410354665    0.1300
     44 H44       -11.2029   -2.0549   60.5935 H       1  ZINC000410354665    0.1400
     45 H45       -14.9122   -2.7262   58.7848 H       1  ZINC000410354665    0.0800
     46 H46       -14.3785   -3.1060   61.1037 H       1  ZINC000410354665    0.0700
     47 H47       -13.0650   -1.8833   61.0866 H       1  ZINC000410354665    0.0800
     48 H48       -16.0970   -1.4236   60.9789 H       1  ZINC000410354665    0.0700
     49 H49       -14.8912   -0.6302   62.0403 H       1  ZINC000410354665    0.0700
     50 H50       -15.7910    0.4892   59.6709 H       1  ZINC000410354665    0.0700
     51 H51       -14.1719    0.8123   60.3531 H       1  ZINC000410354665    0.0700
     52 H52       -13.2096   -0.2464   58.5708 H       1  ZINC000410354665    0.0800
     53 H53       -14.8286   -0.5696   57.8886 H       1  ZINC000410354665    0.0700
@<TRIPOS>BOND
     1     1     2    1
     2     1    30    1
     3     1    31    1
     4     1    32    1
     5     2     3    1
     6     3    23   ar
     7     3     4   ar
     8     4     5   ar
     9     4    33    1
    10     5     6    1
    11     5    21   ar
    12     6     7    2
    13     6     8   am
    14     8     9    1
    15     8    34    1
    16     9    10    1
    17     9    35    1
    18     9    36    1
    19    10    20   ar
    20    10    11   ar
    21    11    12   ar
    22    11    37    1
    23    12    13    1
    24    12    14   ar
    25    14    19   ar
    26    14    15    1
    27    15    16    1
    28    16    17    1
    29    16    38    1
    30    16    39    1
    31    17    18    1
    32    17    40    1
    33    17    41    1
    34    18    19    1
    35    19    20   ar
    36    20    42    1
    37    21    22   ar
    38    21    43    1
    39    22    23   ar
    40    22    44    1
    41    23    24    1
    42    24    25    1
    43    25    29    1
    44    25    26    1
    45    25    45    1
    46    26    27    1
    47    26    46    1
    48    26    47    1
    49    27    28    1
    50    27    48    1
    51    27    49    1
    52    28    29    1
    53    28    50    1
    54    28    51    1
    55    29    52    1
    56    29    53    1
@<TRIPOS>SUBSTRUCTURE
     1 ZINC000410354665        1 TEMP              0 ****  ****    0 ROOT


##########                                Name:    ZINC001058079801
##########                DOCK_Rotatable_Bonds:                   7
##########                         Heavy_Atoms:                  24
##########                    Molecular_Weight:             349.457
##########                DOCK_Rotatable_Bonds:                   7
##########                       Formal_Charge:           0.0200001
##########                     HBond_Acceptors:                   8
##########                        HBond_Donors:                   0
##########                         Heavy_Atoms:                  24
##########                          Grid_Score:          -28.775362
##########                     Grid_vdw_energy:          -29.195475
##########                      Grid_es_energy:            0.420113
##########           Internal_energy_repulsive:           20.783056

@<TRIPOS>MOLECULE
ZINC001058079801
 47 49 1 0 0
SMALL
USER_CHARGES


@<TRIPOS>ATOM
      1 C1         -6.2600    0.7148   51.1961 C.3     1  ZINC001058079801   -0.1500
      2 C2         -7.4490    0.0814   51.9215 C.3     1  ZINC001058079801   -0.1200
      3 C3         -8.3994    1.1810   52.3995 C.3     1  ZINC001058079801   -0.0300
      4 C4         -9.6311    0.5541   53.0005 C.2     1  ZINC001058079801    0.2900
      5 N5        -10.7328    0.4485   52.3161 N.2     1  ZINC001058079801   -0.4800
      6 S6        -11.8501   -0.3032   53.3528 S.3     1  ZINC001058079801    0.1900
      7 C7        -10.7483   -0.4336   54.6710 C.2     1  ZINC001058079801    0.2700
      8 N8        -10.9896   -0.9776   55.9196 N.3     1  ZINC001058079801   -0.4300
      9 C9        -12.1170   -1.9174   55.8753 C.3     1  ZINC001058079801    0.0700
     10 C10       -12.2621   -2.6065   57.2340 C.3     1  ZINC001058079801   -0.1300
     11 C11       -12.4981   -1.5479   58.3150 C.3     1  ZINC001058079801    0.1300
     12 N12       -12.5797   -2.1967   59.6260 N.am    1  ZINC001058079801   -0.6100
     13 C13       -11.3801   -2.7816   60.2298 C.3     1  ZINC001058079801    0.0700
     14 C14       -13.7587   -2.2553   60.2766 C.2     1  ZINC001058079801    0.5200
     15 O15       -13.8266   -2.7938   61.3612 O.2     1  ZINC001058079801   -0.5300
     16 C16       -14.9924   -1.6520   59.6562 C.3     1  ZINC001058079801   -0.0600
     17 C17       -15.4598   -2.5228   58.5185 C.2     1  ZINC001058079801   -0.1900
     18 C18       -15.5550   -2.2006   57.2064 C.2     1  ZINC001058079801   -0.0400
     19 O19       -16.0163   -3.2924   56.5801 O.3     1  ZINC001058079801    0.1000
     20 N20       -16.2010   -4.2036   57.3533 N.2     1  ZINC001058079801   -0.3600
     21 C21       -15.8944   -3.8671   58.5728 C.2     1  ZINC001058079801    0.0000
     22 C22       -11.3334   -0.5539   58.3077 C.3     1  ZINC001058079801   -0.1200
     23 C23       -11.2152    0.0756   56.9177 C.3     1  ZINC001058079801    0.0400
     24 N24        -9.6252    0.0921   54.2294 N.2     1  ZINC001058079801   -0.5300
     25 H25        -5.5828   -0.0685   50.8556 H       1  ZINC001058079801    0.0600
     26 H26        -6.6187    1.2833   50.3382 H       1  ZINC001058079801    0.0600
     27 H27        -5.7313    1.3809   51.8780 H       1  ZINC001058079801    0.0600
     28 H28        -7.9776   -0.5848   51.2396 H       1  ZINC001058079801    0.0700
     29 H29        -7.0902   -0.4871   52.7795 H       1  ZINC001058079801    0.0700
     30 H30        -7.8993    1.7922   53.1508 H       1  ZINC001058079801    0.1000
     31 H31        -8.6858    1.8065   51.5540 H       1  ZINC001058079801    0.0900
     32 H32       -13.0334   -1.3746   55.6435 H       1  ZINC001058079801    0.0600
     33 H33       -11.9347   -2.6672   55.1055 H       1  ZINC001058079801    0.1000
     34 H34       -13.1087   -3.2924   57.2057 H       1  ZINC001058079801    0.0800
     35 H35       -11.3513   -3.1607   57.4602 H       1  ZINC001058079801    0.0800
     36 H36       -13.4298   -1.0203   58.1110 H       1  ZINC001058079801    0.1000
     37 H37       -10.8750   -2.0299   60.8363 H       1  ZINC001058079801    0.0600
     38 H38       -11.6643   -3.6251   60.8590 H       1  ZINC001058079801    0.0800
     39 H39       -10.7081   -3.1253   59.4434 H       1  ZINC001058079801    0.0800
     40 H40       -15.7794   -1.5818   60.4071 H       1  ZINC001058079801    0.1100
     41 H41       -14.7599   -0.6559   59.2796 H       1  ZINC001058079801    0.1100
     42 H42       -15.3081   -1.2516   56.7540 H       1  ZINC001058079801    0.2200
     43 H43       -15.9648   -4.4893   59.4528 H       1  ZINC001058079801    0.1900
     44 H44       -11.5164    0.2266   59.0462 H       1  ZINC001058079801    0.0900
     45 H45       -10.4079   -1.0759   58.5506 H       1  ZINC001058079801    0.0800
     46 H46       -10.3778    0.7734   56.9051 H       1  ZINC001058079801    0.1000
     47 H47       -12.1358    0.6090   56.6812 H       1  ZINC001058079801    0.0700
@<TRIPOS>BOND
     1     1     2    1
     2     1    25    1
     3     1    26    1
     4     1    27    1
     5     2     3    1
     6     2    28    1
     7     2    29    1
     8     3     4    1
     9     3    30    1
    10     3    31    1
    11     4    24    1
    12     4     5    2
    13     5     6    1
    14     6     7    1
    15     7     8    1
    16     7    24    2
    17     8    23    1
    18     8     9    1
    19     9    10    1
    20     9    32    1
    21     9    33    1
    22    10    11    1
    23    10    34    1
    24    10    35    1
    25    11    12    1
    26    11    22    1
    27    11    36    1
    28    12    13    1
    29    12    14   am
    30    13    37    1
    31    13    38    1
    32    13    39    1
    33    14    15    2
    34    14    16    1
    35    16    17    1
    36    16    40    1
    37    16    41    1
    38    17    21    1
    39    17    18    2
    40    18    19    1
    41    18    42    1
    42    19    20    1
    43    20    21    2
    44    21    43    1
    45    22    23    1
    46    22    44    1
    47    22    45    1
    48    23    46    1
    49    23    47    1
@<TRIPOS>SUBSTRUCTURE
     1 ZINC001058079801        1 TEMP              0 ****  ****    0 ROOT


##########                                Name:    ZINC000469459940
##########                DOCK_Rotatable_Bonds:                   7
##########                         Heavy_Atoms:                  24
##########                    Molecular_Weight:             414.295
##########                DOCK_Rotatable_Bonds:                   7
##########                       Formal_Charge:          -0.0200002
##########                     HBond_Acceptors:                   6
##########                        HBond_Donors:                   1
##########                         Heavy_Atoms:                  24
##########                          Grid_Score:          -28.749367
##########                     Grid_vdw_energy:          -28.869829
##########                      Grid_es_energy:            0.120462
##########           Internal_energy_repulsive:            8.213329

@<TRIPOS>MOLECULE
ZINC000469459940
 41 42 1 0 0
SMALL
USER_CHARGES


@<TRIPOS>ATOM
      1 C1          2.5950   -1.5897   49.8859 C.3     1  ZINC000469459940   -0.1600
      2 C2          2.5213   -0.7615   48.6015 C.3     1  ZINC000469459940   -0.1200
      3 C3          2.2564    0.7036   48.9539 C.3     1  ZINC000469459940   -0.1200
      4 C4          2.2536    1.5433   47.6750 C.3     1  ZINC000469459940   -0.6000
      5 S5          1.6999    3.2275   48.0586 S.o2    1  ZINC000469459940    2.4900
      6 O6          2.5534    3.8252   49.0248 O.2     1  ZINC000469459940   -0.9300
      7 O7          1.3432    3.9183   46.8692 O.2     1  ZINC000469459940   -0.9300
      8 C8          0.1716    3.0054   48.9070 C.ar    1  ZINC000469459940   -0.6400
      9 C9          0.1539    2.9431   50.2891 C.ar    1  ZINC000469459940   -0.0300
     10 C10        -1.0392    2.7690   50.9595 C.ar    1  ZINC000469459940   -0.0800
     11 C11        -2.2302    2.6559   50.2404 C.ar    1  ZINC000469459940   -0.0900
     12 C12        -3.5123    2.4697   50.9520 C.2     1  ZINC000469459940    0.5600
     13 O13        -3.5429    2.4990   52.1669 O.2     1  ZINC000469459940   -0.5000
     14 N14        -4.6473    2.2672   50.2540 N.am    1  ZINC000469459940   -0.6700
     15 C15        -5.8606    2.0909   50.9275 C.ar    1  ZINC000469459940    0.1900
     16 C16        -6.3261    0.8108   51.1979 C.ar    1  ZINC000469459940   -0.1500
     17 C17        -7.5245    0.6382   51.8630 C.ar    1  ZINC000469459940   -0.0400
     18 C18        -8.2619    1.7388   52.2601 C.ar    1  ZINC000469459940   -0.1500
     19 Br19       -9.9018    1.4981   53.1704 Br      1  ZINC000469459940   -0.0200
     20 C20        -7.8005    3.0181   51.9920 C.ar    1  ZINC000469459940    0.1500
     21 F21        -8.5225    4.0917   52.3808 F       1  ZINC000469459940   -0.1200
     22 C22        -6.5984    3.1958   51.3318 C.ar    1  ZINC000469459940   -0.1500
     23 C23        -2.2053    2.7201   48.8461 C.ar    1  ZINC000469459940   -0.1100
     24 C24        -1.0060    2.8997   48.1883 C.ar    1  ZINC000469459940   -0.0300
     25 H25         3.4034   -1.2151   50.5139 H       1  ZINC000469459940    0.0600
     26 H26         1.6503   -1.5104   50.4240 H       1  ZINC000469459940    0.0600
     27 H27         2.7837   -2.6335   49.6349 H       1  ZINC000469459940    0.0600
     28 H28         3.4659   -0.8407   48.0635 H       1  ZINC000469459940    0.0700
     29 H29         1.7129   -1.1360   47.9736 H       1  ZINC000469459940    0.0700
     30 H30         1.2881    0.7894   49.4470 H       1  ZINC000469459940    0.0800
     31 H31         3.0380    1.0634   49.6231 H       1  ZINC000469459940    0.0800
     32 H32         3.2612    1.5776   47.2606 H       1  ZINC000469459940    0.1400
     33 H33         1.5767    1.0952   46.9476 H       1  ZINC000469459940    0.1400
     34 H34         1.0761    3.0307   50.8443 H       1  ZINC000469459940    0.1500
     35 H35        -1.0516    2.7197   52.0383 H       1  ZINC000469459940    0.1500
     36 H36        -4.6228    2.2437   49.2846 H       1  ZINC000469459940    0.4200
     37 H37        -5.7518   -0.0496   50.8879 H       1  ZINC000469459940    0.1500
     38 H38        -7.8862   -0.3575   52.0732 H       1  ZINC000469459940    0.1500
     39 H39        -6.2384    4.1923   51.1228 H       1  ZINC000469459940    0.1600
     40 H40        -3.1232    2.6330   48.2838 H       1  ZINC000469459940    0.1400
     41 H41        -0.9853    2.9495   47.1097 H       1  ZINC000469459940    0.1500
@<TRIPOS>BOND
     1     1     2    1
     2     1    25    1
     3     1    26    1
     4     1    27    1
     5     2     3    1
     6     2    28    1
     7     2    29    1
     8     3     4    1
     9     3    30    1
    10     3    31    1
    11     4     5    1
    12     4    32    1
    13     4    33    1
    14     5     6    2
    15     5     7    2
    16     5     8    1
    17     8    24   ar
    18     8     9   ar
    19     9    10   ar
    20     9    34    1
    21    10    11   ar
    22    10    35    1
    23    11    12    1
    24    11    23   ar
    25    12    13    2
    26    12    14   am
    27    14    15    1
    28    14    36    1
    29    15    22   ar
    30    15    16   ar
    31    16    17   ar
    32    16    37    1
    33    17    18   ar
    34    17    38    1
    35    18    19    1
    36    18    20   ar
    37    20    21    1
    38    20    22   ar
    39    22    39    1
    40    23    24   ar
    41    23    40    1
    42    24    41    1
@<TRIPOS>SUBSTRUCTURE
     1 ZINC000469459940        1 TEMP              0 ****  ****    0 ROOT


##########                                Name:    ZINC001141221454
##########                DOCK_Rotatable_Bonds:                   7
##########                         Heavy_Atoms:                  27
##########                    Molecular_Weight:             369.439
##########                DOCK_Rotatable_Bonds:                   7
##########                       Formal_Charge:          0.00999935
##########                     HBond_Acceptors:                   6
##########                        HBond_Donors:                   1
##########                         Heavy_Atoms:                  27
##########                          Grid_Score:          -28.744543
##########                     Grid_vdw_energy:          -27.547443
##########                      Grid_es_energy:           -1.197099
##########           Internal_energy_repulsive:           11.889897

@<TRIPOS>MOLECULE
ZINC001141221454
 51 54 1 0 0
SMALL
USER_CHARGES


@<TRIPOS>ATOM
      1 C1         -0.9592    2.5698   56.9098 C.3     1  ZINC001141221454    0.0300
      2 O2         -0.7039    3.3310   55.7276 O.3     1  ZINC001141221454   -0.3100
      3 C3         -1.6954    3.3793   54.7986 C.ar    1  ZINC001141221454    0.0900
      4 C4         -2.9599    2.9027   55.1070 C.ar    1  ZINC001141221454   -0.1800
      5 C5         -3.9665    2.9532   54.1611 C.ar    1  ZINC001141221454   -0.0900
      6 C6         -3.7141    3.4784   52.9077 C.ar    1  ZINC001141221454   -0.1200
      7 C7         -2.4538    3.9546   52.5956 C.ar    1  ZINC001141221454   -0.0800
      8 C8         -2.1820    4.5260   51.2279 C.3     1  ZINC001141221454    0.0900
      9 N9         -1.0969    3.7702   50.5883 N.3     1  ZINC001141221454   -0.5100
     10 C10        -1.6137    2.9397   49.4698 C.3     1  ZINC001141221454    0.0300
     11 C11        -0.3502    2.6670   48.6128 C.3     1  ZINC001141221454   -0.0700
     12 C12         0.4245    3.9934   48.7199 C.3     1  ZINC001141221454   -0.1000
     13 C13         0.8027    4.7885   47.4770 C.3     1  ZINC001141221454   -0.1400
     14 C14         1.8863    4.0893   48.3033 C.3     1  ZINC001141221454   -0.1800
     15 H15         2.5419    4.7164   48.9074 H       1  ZINC001141221454    0.1300
     16 C16         2.5254    2.8584   47.7141 C.2     1  ZINC001141221454    0.5500
     17 O17         2.4958    2.6742   46.5156 O.2     1  ZINC001141221454   -0.5300
     18 N18         3.1300    1.9622   48.5188 N.am    1  ZINC001141221454   -0.7300
     19 C19         3.7498    0.7646   47.9463 C.3     1  ZINC001141221454    0.1700
     20 C20         3.9557   -0.2617   49.0304 C.ar    1  ZINC001141221454   -0.1600
     21 C21         2.9579   -1.1764   49.3298 C.ar    1  ZINC001141221454   -0.0600
     22 C22         3.1918   -2.1028   50.3348 C.ar    1  ZINC001141221454   -0.1700
     23 C23         4.4029   -2.0837   50.9998 C.ar    1  ZINC001141221454    0.1100
     24 N24         5.3297   -1.1985   50.6882 N.ar    1  ZINC001141221454   -0.4800
     25 C25         5.1441   -0.3066   49.7350 C.ar    1  ZINC001141221454    0.1200
     26 C26        -0.0974    4.6827   49.9867 C.3     1  ZINC001141221454    0.0700
     27 C27        -1.4444    3.9118   53.5399 C.ar    1  ZINC001141221454    0.0900
     28 F28        -0.2130    4.3768   53.2354 F       1  ZINC001141221454   -0.1300
     29 H29        -0.0895    2.6142   57.5654 H       1  ZINC001141221454    0.1000
     30 H30        -1.8256    2.9818   57.4272 H       1  ZINC001141221454    0.0600
     31 H31        -1.1572    1.5328   56.6386 H       1  ZINC001141221454    0.0600
     32 H32        -3.1585    2.4918   56.0858 H       1  ZINC001141221454    0.1400
     33 H33        -4.9516    2.5815   54.4016 H       1  ZINC001141221454    0.1300
     34 H34        -4.5026    3.5166   52.1707 H       1  ZINC001141221454    0.1300
     35 H35        -3.0829    4.4544   50.6186 H       1  ZINC001141221454    0.0600
     36 H36        -1.8896    5.5718   51.3227 H       1  ZINC001141221454    0.0900
     37 H37        -2.0318    2.0059   49.8459 H       1  ZINC001141221454    0.0800
     38 H38        -2.3574    3.4905   48.8938 H       1  ZINC001141221454    0.0500
     39 H39         0.2309    1.8453   49.0315 H       1  ZINC001141221454    0.0900
     40 H40        -0.6224    2.4610   47.5776 H       1  ZINC001141221454    0.0700
     41 H41         0.5519    4.3574   46.5079 H       1  ZINC001141221454    0.1000
     42 H42         0.7458    5.8753   47.5378 H       1  ZINC001141221454    0.1100
     43 H43         3.1548    2.1101   49.4772 H       1  ZINC001141221454    0.4000
     44 H44         3.0997    0.3525   47.1746 H       1  ZINC001141221454    0.0800
     45 H45         4.7124    1.0279   47.5079 H       1  ZINC001141221454    0.0800
     46 H46         2.0206   -1.1675   48.7933 H       1  ZINC001141221454    0.1400
     47 H47         2.4367   -2.8299   50.5947 H       1  ZINC001141221454    0.1400
     48 H48         4.5926   -2.8016   51.7839 H       1  ZINC001141221454    0.1600
     49 H49         5.9262    0.4026   49.5081 H       1  ZINC001141221454    0.1600
     50 H50        -0.5670    5.6318   49.7283 H       1  ZINC001141221454    0.0500
     51 H51         0.7226    4.8500   50.6850 H       1  ZINC001141221454    0.0900
@<TRIPOS>BOND
     1     1     2    1
     2     1    29    1
     3     1    30    1
     4     1    31    1
     5     2     3    1
     6     3    27   ar
     7     3     4   ar
     8     4     5   ar
     9     4    32    1
    10     5     6   ar
    11     5    33    1
    12     6     7   ar
    13     6    34    1
    14     7     8    1
    15     7    27   ar
    16     8     9    1
    17     8    35    1
    18     8    36    1
    19     9    26    1
    20     9    10    1
    21    10    11    1
    22    10    37    1
    23    10    38    1
    24    11    12    1
    25    11    39    1
    26    11    40    1
    27    12    14    1
    28    12    13    1
    29    12    26    1
    30    13    14    1
    31    13    41    1
    32    13    42    1
    33    14    15    1
    34    14    16    1
    35    16    17    2
    36    16    18   am
    37    18    19    1
    38    18    43    1
    39    19    20    1
    40    19    44    1
    41    19    45    1
    42    20    25   ar
    43    20    21   ar
    44    21    22   ar
    45    21    46    1
    46    22    23   ar
    47    22    47    1
    48    23    24   ar
    49    23    48    1
    50    24    25   ar
    51    25    49    1
    52    26    50    1
    53    26    51    1
    54    27    28    1
@<TRIPOS>SUBSTRUCTURE
     1 ZINC001141221454        1 TEMP              0 ****  ****    0 ROOT


##########                                Name:    ZINC000417533280
##########                DOCK_Rotatable_Bonds:                   9
##########                         Heavy_Atoms:                  26
##########                    Molecular_Weight:             367.439
##########                DOCK_Rotatable_Bonds:                   9
##########                       Formal_Charge:         -0.00999999
##########                     HBond_Acceptors:                   7
##########                        HBond_Donors:                   2
##########                         Heavy_Atoms:                  26
##########                          Grid_Score:          -28.686771
##########                     Grid_vdw_energy:          -27.759350
##########                      Grid_es_energy:           -0.927423
##########           Internal_energy_repulsive:           14.364689

@<TRIPOS>MOLECULE
ZINC000417533280
 53 54 1 0 0
SMALL
USER_CHARGES


@<TRIPOS>ATOM
      1 C1         -1.7746    3.2607   50.3909 C.3     1  ZINC000417533280   -0.1600
      2 C2         -3.0564    2.4256   50.3696 C.3     1  ZINC000417533280   -0.1200
      3 C3         -3.9909    2.8969   51.4856 C.3     1  ZINC000417533280   -0.1200
      4 C4         -5.3100    2.1259   51.4059 C.3     1  ZINC000417533280   -0.1300
      5 C5         -6.2303    2.5706   52.5443 C.3     1  ZINC000417533280    0.1200
      6 N6         -7.3397    1.6228   52.6741 N.am    1  ZINC000417533280   -0.7300
      7 C7         -8.5821    1.9837   52.2964 C.2     1  ZINC000417533280    0.5200
      8 O8         -8.7814    3.0927   51.8477 O.2     1  ZINC000417533280   -0.5400
      9 C9         -9.7237    1.0091   52.4316 C.3     1  ZINC000417533280   -0.1100
     10 C10        -9.3584   -0.0647   53.4590 C.3     1  ZINC000417533280   -0.1300
     11 C11       -10.5067   -1.0727   53.5684 C.3     1  ZINC000417533280    0.1300
     12 N12       -11.7471   -0.3455   53.8707 N.am    1  ZINC000417533280   -0.6200
     13 C13       -12.5056   -0.6920   54.9296 C.2     1  ZINC000417533280    0.7100
     14 O14       -13.5299   -0.0823   55.1691 O.2     1  ZINC000417533280   -0.5600
     15 N15       -12.1286   -1.7142   55.7229 N.am    1  ZINC000417533280   -0.6800
     16 C16       -12.9167   -2.0743   56.8232 C.ar    1  ZINC000417533280    0.1900
     17 C17       -12.6590   -1.5253   58.0719 C.ar    1  ZINC000417533280   -0.1100
     18 C18       -13.4373   -1.8806   59.1569 C.ar    1  ZINC000417533280   -0.1100
     19 C19       -14.4740   -2.7838   59.0003 C.ar    1  ZINC000417533280    0.0500
     20 F20       -15.2340   -3.1294   60.0625 F       1  ZINC000417533280   -0.1300
     21 C21       -14.7341   -3.3341   57.7540 C.ar    1  ZINC000417533280    0.0900
     22 F22       -15.7466   -4.2156   57.6027 F       1  ZINC000417533280   -0.1200
     23 C23       -13.9603   -2.9764   56.6651 C.ar    1  ZINC000417533280   -0.1300
     24 C24       -14.2425   -3.5734   55.3105 C.3     1  ZINC000417533280   -0.1200
     25 C25       -12.1447    0.7668   52.9971 C.3     1  ZINC000417533280    0.1100
     26 C26       -10.9779    1.7542   52.8940 C.3     1  ZINC000417533280   -0.1200
     27 H27        -2.0227    4.3111   50.2377 H       1  ZINC000417533280    0.0500
     28 H28        -1.2791    3.1413   51.3544 H       1  ZINC000417533280    0.0500
     29 H29        -1.1089    2.9249   49.5959 H       1  ZINC000417533280    0.0500
     30 H30        -3.5520    2.5451   49.4061 H       1  ZINC000417533280    0.0600
     31 H31        -2.8083    1.3753   50.5227 H       1  ZINC000417533280    0.0600
     32 H32        -3.5220    2.7158   52.4527 H       1  ZINC000417533280    0.0700
     33 H33        -4.1858    3.9631   51.3702 H       1  ZINC000417533280    0.0700
     34 H34        -5.7917    2.3279   50.4492 H       1  ZINC000417533280    0.0700
     35 H35        -5.1123    1.0576   51.4947 H       1  ZINC000417533280    0.0700
     36 H36        -5.6666    2.6001   53.4768 H       1  ZINC000417533280    0.0700
     37 H37        -6.6242    3.5634   52.3263 H       1  ZINC000417533280    0.0700
     38 H38        -7.1802    0.7353   53.0318 H       1  ZINC000417533280    0.4000
     39 H39        -9.9156    0.5386   51.4674 H       1  ZINC000417533280    0.1000
     40 H40        -8.4518   -0.5792   53.1407 H       1  ZINC000417533280    0.0800
     41 H41        -9.1905    0.4023   54.4295 H       1  ZINC000417533280    0.0800
     42 H42       -10.6165   -1.6056   52.6239 H       1  ZINC000417533280    0.0700
     43 H43       -10.2951   -1.7824   54.3682 H       1  ZINC000417533280    0.1000
     44 H44       -11.3115   -2.2006   55.5317 H       1  ZINC000417533280    0.4100
     45 H45       -11.8499   -0.8206   58.1953 H       1  ZINC000417533280    0.1700
     46 H46       -13.2361   -1.4534   60.1281 H       1  ZINC000417533280    0.1500
     47 H47       -14.9568   -2.9454   54.7782 H       1  ZINC000417533280    0.0800
     48 H48       -13.3158   -3.6337   54.7398 H       1  ZINC000417533280    0.0700
     49 H49       -14.6589   -4.5732   55.4337 H       1  ZINC000417533280    0.0800
     50 H50       -12.3881    0.3840   52.0059 H       1  ZINC000417533280    0.0800
     51 H51       -13.0138    1.2709   53.4199 H       1  ZINC000417533280    0.0800
     52 H52       -10.7949    2.2041   53.8698 H       1  ZINC000417533280    0.0800
     53 H53       -11.2241    2.5342   52.1736 H       1  ZINC000417533280    0.0900
@<TRIPOS>BOND
     1     1     2    1
     2     1    27    1
     3     1    28    1
     4     1    29    1
     5     2     3    1
     6     2    30    1
     7     2    31    1
     8     3     4    1
     9     3    32    1
    10     3    33    1
    11     4     5    1
    12     4    34    1
    13     4    35    1
    14     5     6    1
    15     5    36    1
    16     5    37    1
    17     6     7   am
    18     6    38    1
    19     7     8    2
    20     7     9    1
    21     9    26    1
    22     9    10    1
    23     9    39    1
    24    10    11    1
    25    10    40    1
    26    10    41    1
    27    11    12    1
    28    11    42    1
    29    11    43    1
    30    12    13   am
    31    12    25    1
    32    13    14    2
    33    13    15   am
    34    15    16    1
    35    15    44    1
    36    16    23   ar
    37    16    17   ar
    38    17    18   ar
    39    17    45    1
    40    18    19   ar
    41    18    46    1
    42    19    20    1
    43    19    21   ar
    44    21    22    1
    45    21    23   ar
    46    23    24    1
    47    24    47    1
    48    24    48    1
    49    24    49    1
    50    25    26    1
    51    25    50    1
    52    25    51    1
    53    26    52    1
    54    26    53    1
@<TRIPOS>SUBSTRUCTURE
     1 ZINC000417533280        1 TEMP              0 ****  ****    0 ROOT


##########                                Name:    ZINC000015179664
##########                DOCK_Rotatable_Bonds:                   8
##########                         Heavy_Atoms:                  25
##########                    Molecular_Weight:             361.422
##########                DOCK_Rotatable_Bonds:                   8
##########                       Formal_Charge:        -2.23517e-07
##########                     HBond_Acceptors:                   8
##########                        HBond_Donors:                   1
##########                         Heavy_Atoms:                  25
##########                          Grid_Score:          -28.669254
##########                     Grid_vdw_energy:          -29.519096
##########                      Grid_es_energy:            0.849843
##########           Internal_energy_repulsive:           19.207943

@<TRIPOS>MOLECULE
ZINC000015179664
 44 45 1 0 0
SMALL
USER_CHARGES


@<TRIPOS>ATOM
      1 C1          1.7826    2.4394   46.5185 C.3     1  ZINC000015179664   -0.1600
      2 C2          1.4303    2.7798   47.9680 C.3     1  ZINC000015179664    0.1800
      3 H3          1.5464    3.8517   48.1280 H       1  ZINC000015179664    0.1200
      4 C4          2.3498    2.0306   48.8977 C.ar    1  ZINC000015179664   -0.1000
      5 C5          3.2869    2.7183   49.6453 C.ar    1  ZINC000015179664   -0.0700
      6 C6          4.1304    2.0308   50.4983 C.ar    1  ZINC000015179664   -0.1200
      7 C7          4.0361    0.6559   50.6036 C.ar    1  ZINC000015179664   -0.0500
      8 C8          3.0979   -0.0319   49.8565 C.ar    1  ZINC000015179664   -0.0400
      9 N9          2.9972   -1.5044   49.9689 N.pl3   1  ZINC000015179664    0.0300
     10 O10         3.7408   -2.1101   50.7197 O.2     1  ZINC000015179664   -0.1600
     11 O11         2.1707   -2.1103   49.3106 O.2     1  ZINC000015179664   -0.1500
     12 C12         2.2518    0.6558   49.0070 C.ar    1  ZINC000015179664   -0.0400
     13 N13         0.0430    2.3933   48.2370 N.am    1  ZINC000015179664   -0.6100
     14 C14        -0.6501    1.4740   47.3310 C.3     1  ZINC000015179664    0.0600
     15 C15        -0.5955    2.8834   49.3179 C.2     1  ZINC000015179664    0.5200
     16 O16        -0.0212    3.6434   50.0687 O.2     1  ZINC000015179664   -0.5200
     17 C17        -2.0231    2.4873   49.5937 C.3     1  ZINC000015179664   -0.1500
     18 C18        -2.4185    2.9492   50.9977 C.3     1  ZINC000015179664    0.1300
     19 N19        -3.7906    2.5231   51.2837 N.am    1  ZINC000015179664   -0.7300
     20 C20        -4.5248    3.1851   52.1997 C.2     1  ZINC000015179664    0.5800
     21 O21        -4.0477    4.1356   52.7900 O.2     1  ZINC000015179664   -0.5300
     22 C22        -5.9040    2.7580   52.4858 C.2     1  ZINC000015179664   -0.1500
     23 C23        -6.6934    3.3497   53.4220 C.2     1  ZINC000015179664   -0.2200
     24 S24        -8.2234    2.6012   53.4849 S.3     1  ZINC000015179664    0.1900
     25 C25        -7.8004    1.4595   52.2209 C.2     1  ZINC000015179664   -0.2300
     26 C26        -6.5602    1.6714   51.7967 C.2     1  ZINC000015179664   -0.0900
     27 H27         2.8148    2.7270   46.3183 H       1  ZINC000015179664    0.0800
     28 H28         1.6666    1.3675   46.3585 H       1  ZINC000015179664    0.0600
     29 H29         1.1176    2.9813   45.8461 H       1  ZINC000015179664    0.0700
     30 H30         3.3607    3.7925   49.5630 H       1  ZINC000015179664    0.1500
     31 H31         4.8633    2.5681   51.0819 H       1  ZINC000015179664    0.1500
     32 H32         4.6954    0.1188   51.2693 H       1  ZINC000015179664    0.1600
     33 H33         1.5190    0.1186   48.4233 H       1  ZINC000015179664    0.1600
     34 H34        -0.4571    0.4464   47.6387 H       1  ZINC000015179664    0.0600
     35 H35        -1.7220    1.6686   47.3663 H       1  ZINC000015179664    0.0800
     36 H36        -0.2869    1.6233   46.3142 H       1  ZINC000015179664    0.0800
     37 H37        -2.6784    2.9555   48.8592 H       1  ZINC000015179664    0.1000
     38 H38        -2.1188    1.4036   49.5273 H       1  ZINC000015179664    0.1000
     39 H39        -1.7412    2.5086   51.7293 H       1  ZINC000015179664    0.0800
     40 H40        -2.3564    4.0360   51.0535 H       1  ZINC000015179664    0.0800
     41 H41        -4.1707    1.7644   50.8138 H       1  ZINC000015179664    0.4000
     42 H42        -6.3915    4.1811   54.0417 H       1  ZINC000015179664    0.1700
     43 H43        -8.4588    0.6936   51.8384 H       1  ZINC000015179664    0.1700
     44 H44        -6.0879    1.0864   51.0215 H       1  ZINC000015179664    0.1600
@<TRIPOS>BOND
     1     1     2    1
     2     1    27    1
     3     1    28    1
     4     1    29    1
     5     2     3    1
     6     2     4    1
     7     2    13    1
     8     4    12   ar
     9     4     5   ar
    10     5     6   ar
    11     5    30    1
    12     6     7   ar
    13     6    31    1
    14     7     8   ar
    15     7    32    1
    16     8     9    1
    17     8    12   ar
    18     9    10    2
    19     9    11    2
    20    12    33    1
    21    13    14    1
    22    13    15   am
    23    14    34    1
    24    14    35    1
    25    14    36    1
    26    15    16    2
    27    15    17    1
    28    17    18    1
    29    17    37    1
    30    17    38    1
    31    18    19    1
    32    18    39    1
    33    18    40    1
    34    19    20   am
    35    19    41    1
    36    20    21    2
    37    20    22    1
    38    22    26    1
    39    22    23    2
    40    23    24    1
    41    23    42    1
    42    24    25    1
    43    25    26    2
    44    25    43    1
    45    26    44    1
@<TRIPOS>SUBSTRUCTURE
     1 ZINC000015179664        1 TEMP              0 ****  ****    0 ROOT


##########                                Name:    ZINC000555499135
##########                DOCK_Rotatable_Bonds:                   8
##########                         Heavy_Atoms:                  26
##########                    Molecular_Weight:             377.554
##########                DOCK_Rotatable_Bonds:                   8
##########                       Formal_Charge:           0.0399999
##########                     HBond_Acceptors:                   7
##########                        HBond_Donors:                   0
##########                         Heavy_Atoms:                  26
##########                          Grid_Score:          -28.662111
##########                     Grid_vdw_energy:          -28.069159
##########                      Grid_es_energy:           -0.592952
##########           Internal_energy_repulsive:           10.088458

@<TRIPOS>MOLECULE
ZINC000555499135
 57 59 1 0 0
SMALL
USER_CHARGES


@<TRIPOS>ATOM
      1 C1        -17.0538   -6.1567   53.0928 C.3     1  ZINC000555499135   -0.1500
      2 C2        -15.6187   -6.0936   53.6195 C.3     1  ZINC000555499135   -0.0500
      3 C3        -15.6221   -5.5414   55.0216 C.2     1  ZINC000555499135   -0.2100
      4 C4        -15.7244   -6.2545   56.1472 C.2     1  ZINC000555499135    0.0300
      5 N5        -15.7028   -5.5371   57.2525 N.2     1  ZINC000555499135   -0.4500
      6 C6        -15.5878   -4.2586   57.1218 C.2     1  ZINC000555499135    0.0400
      7 C7        -15.5445   -3.2754   58.2630 C.3     1  ZINC000555499135    0.1500
      8 N8        -14.7874   -2.0845   57.8549 N.3     1  ZINC000555499135   -0.4500
      9 C9        -15.6773   -0.9286   57.6821 C.3     1  ZINC000555499135    0.0100
     10 C10       -13.7779   -1.8029   58.7616 C.2     1  ZINC000555499135    0.3500
     11 N11       -13.9327   -1.4055   60.0026 N.2     1  ZINC000555499135   -0.3100
     12 N12       -12.7838   -1.2391   60.5543 N.2     1  ZINC000555499135   -0.2900
     13 C13       -11.8358   -1.5182   59.7052 C.2     1  ZINC000555499135    0.2100
     14 C14       -10.3533   -1.4481   59.9667 C.3     1  ZINC000555499135   -0.0300
     15 C15       -10.0220   -0.1328   60.6746 C.3     1  ZINC000555499135   -0.0900
     16 C16        -8.5569   -0.1457   61.1153 C.3     1  ZINC000555499135   -0.1500
     17 C17       -10.2557    1.0358   59.7151 C.3     1  ZINC000555499135   -0.1500
     18 N18       -12.4354   -1.8922   58.5345 N.pl3   1  ZINC000555499135   -0.4600
     19 C19       -11.7736   -2.2965   57.2916 C.3     1  ZINC000555499135    0.1100
     20 C20       -11.7782   -1.1255   56.3071 C.3     1  ZINC000555499135    0.0700
     21 H21       -12.7421   -0.6183   56.3499 H       1  ZINC000555499135    0.0700
     22 C22       -11.5399   -1.6500   54.8887 C.3     1  ZINC000555499135   -0.1500
     23 C23       -11.4859   -0.4668   53.9174 C.3     1  ZINC000555499135   -0.1200
     24 C24       -10.3895    0.5021   54.3707 C.3     1  ZINC000555499135   -0.1600
     25 C25       -10.6722    0.9435   55.8092 C.3     1  ZINC000555499135    0.0600
     26 O26       -10.7404   -0.2065   56.6546 O.3     1  ZINC000555499135   -0.3700
     27 S27       -15.4840   -3.8422   55.4668 S.3     1  ZINC000555499135    0.1200
     28 H28       -17.6490   -6.8041   53.7368 H       1  ZINC000555499135    0.0600
     29 H29       -17.4834   -5.1550   53.0877 H       1  ZINC000555499135    0.0600
     30 H30       -17.0515   -6.5562   52.0787 H       1  ZINC000555499135    0.0700
     31 H31       -15.1892   -7.0954   53.6245 H       1  ZINC000555499135    0.0900
     32 H32       -15.0235   -5.4463   52.9754 H       1  ZINC000555499135    0.0800
     33 H33       -15.8173   -7.3304   56.1508 H       1  ZINC000555499135    0.1800
     34 H34       -16.5603   -2.9857   58.5318 H       1  ZINC000555499135    0.0800
     35 H35       -15.0590   -3.7376   59.1226 H       1  ZINC000555499135    0.1200
     36 H36       -16.0910   -0.6409   58.6486 H       1  ZINC000555499135    0.0500
     37 H37       -15.1126   -0.0944   57.2657 H       1  ZINC000555499135    0.0800
     38 H38       -16.4885   -1.1929   57.0037 H       1  ZINC000555499135    0.0900
     39 H39       -10.0557   -2.2854   60.5979 H       1  ZINC000555499135    0.1000
     40 H40        -9.8147   -1.4971   59.0203 H       1  ZINC000555499135    0.1000
     41 H41       -10.6633   -0.0191   61.5486 H       1  ZINC000555499135    0.0800
     42 H42        -8.3811   -1.0014   61.7671 H       1  ZINC000555499135    0.0500
     43 H43        -7.9143   -0.2192   60.2379 H       1  ZINC000555499135    0.0600
     44 H44        -8.3316    0.7743   61.6547 H       1  ZINC000555499135    0.0600
     45 H45       -11.2995    1.0450   59.4012 H       1  ZINC000555499135    0.0600
     46 H46       -10.0197    1.9728   60.2194 H       1  ZINC000555499135    0.0600
     47 H47        -9.6144    0.9220   58.8410 H       1  ZINC000555499135    0.0600
     48 H48       -10.7452   -2.5873   57.5056 H       1  ZINC000555499135    0.1100
     49 H49       -12.3065   -3.1409   56.8544 H       1  ZINC000555499135    0.1200
     50 H50       -10.5950   -2.1924   54.8549 H       1  ZINC000555499135    0.0800
     51 H51       -12.3541   -2.3169   54.6054 H       1  ZINC000555499135    0.0800
     52 H52       -11.2607   -0.8285   52.9141 H       1  ZINC000555499135    0.0700
     53 H53       -12.4475    0.0465   53.9141 H       1  ZINC000555499135    0.0600
     54 H54        -9.4214    0.0031   54.3266 H       1  ZINC000555499135    0.0700
     55 H55       -10.3810    1.3743   53.7171 H       1  ZINC000555499135    0.0800
     56 H56        -9.8722    1.5997   56.1519 H       1  ZINC000555499135    0.1000
     57 H57       -11.6216    1.4779   55.8454 H       1  ZINC000555499135    0.0500
@<TRIPOS>BOND
     1     1     2    1
     2     1    28    1
     3     1    29    1
     4     1    30    1
     5     2     3    1
     6     2    31    1
     7     2    32    1
     8     3    27    1
     9     3     4    2
    10     4     5    1
    11     4    33    1
    12     5     6    2
    13     6     7    1
    14     6    27    1
    15     7     8    1
    16     7    34    1
    17     7    35    1
    18     8     9    1
    19     8    10    1
    20     9    36    1
    21     9    37    1
    22     9    38    1
    23    10    18    1
    24    10    11    2
    25    11    12    1
    26    12    13    2
    27    13    14    1
    28    13    18    1
    29    14    15    1
    30    14    39    1
    31    14    40    1
    32    15    16    1
    33    15    17    1
    34    15    41    1
    35    16    42    1
    36    16    43    1
    37    16    44    1
    38    17    45    1
    39    17    46    1
    40    17    47    1
    41    18    19    1
    42    19    20    1
    43    19    48    1
    44    19    49    1
    45    20    21    1
    46    20    26    1
    47    20    22    1
    48    22    23    1
    49    22    50    1
    50    22    51    1
    51    23    24    1
    52    23    52    1
    53    23    53    1
    54    24    25    1
    55    24    54    1
    56    24    55    1
    57    25    26    1
    58    25    56    1
    59    25    57    1
@<TRIPOS>SUBSTRUCTURE
     1 ZINC000555499135        1 TEMP              0 ****  ****    0 ROOT


##########                                Name:    ZINC000191003171
##########                DOCK_Rotatable_Bonds:                   6
##########                         Heavy_Atoms:                  26
##########                    Molecular_Weight:             389.414
##########                DOCK_Rotatable_Bonds:                   6
##########                       Formal_Charge:          -0.0200002
##########                     HBond_Acceptors:                   8
##########                        HBond_Donors:                   1
##########                         Heavy_Atoms:                  26
##########                          Grid_Score:          -28.658131
##########                     Grid_vdw_energy:          -28.713699
##########                      Grid_es_energy:            0.055569
##########           Internal_energy_repulsive:           16.486397

@<TRIPOS>MOLECULE
ZINC000191003171
 45 46 1 0 0
SMALL
USER_CHARGES


@<TRIPOS>ATOM
      1 C1         -1.4187    2.2439   47.6256 C.3     1  ZINC000191003171   -0.1200
      2 C2         -0.2741    1.8039   48.5017 C.ar    1  ZINC000191003171   -0.0800
      3 C3          0.5946    0.8227   48.0626 C.ar    1  ZINC000191003171   -0.0700
      4 C4          1.6447    0.4190   48.8664 C.ar    1  ZINC000191003171   -0.1800
      5 C5          2.5917   -0.6511   48.3878 C.3     1  ZINC000191003171    0.5100
      6 F6          2.0888   -1.9090   48.7369 F       1  ZINC000191003171   -0.1800
      7 F7          2.7221   -0.5705   46.9973 F       1  ZINC000191003171   -0.1800
      8 F8          3.8435   -0.4671   48.9850 F       1  ZINC000191003171   -0.1800
      9 C9          1.8261    0.9972   50.1086 C.ar    1  ZINC000191003171   -0.0800
     10 C10         0.9572    1.9790   50.5476 C.ar    1  ZINC000191003171   -0.1000
     11 C11        -0.0899    2.3857   49.7423 C.ar    1  ZINC000191003171   -0.0500
     12 C12        -1.0369    3.4558   50.2208 C.3     1  ZINC000191003171    0.0900
     13 N13        -2.1919    2.8295   50.8778 N.3     1  ZINC000191003171   -0.6800
     14 C14        -3.0523    3.8407   51.5065 C.3     1  ZINC000191003171    0.1200
     15 H15        -3.0969    4.7254   50.8714 H       1  ZINC000191003171    0.0600
     16 C16        -2.4772    4.2218   52.8722 C.3     1  ZINC000191003171   -0.1400
     17 C17        -4.4395    3.2796   51.6844 C.ar    1  ZINC000191003171   -0.0100
     18 C18        -4.6779    1.9386   51.4485 C.ar    1  ZINC000191003171   -0.1300
     19 C19        -5.9502    1.4224   51.6113 C.ar    1  ZINC000191003171    0.0100
     20 C20        -6.9850    2.2467   52.0101 C.ar    1  ZINC000191003171   -0.7000
     21 S21        -8.6062    1.5884   52.2175 S.o2    1  ZINC000191003171    2.5000
     22 C22        -8.8861    1.6308   54.0093 C.3     1  ZINC000191003171   -0.6500
     23 O23        -9.4505    2.5223   51.5586 O.2     1  ZINC000191003171   -0.9300
     24 O24        -8.5008    0.2470   51.7609 O.2     1  ZINC000191003171   -0.9300
     25 C25        -6.7473    3.5901   52.2473 C.ar    1  ZINC000191003171    0.1900
     26 F26        -7.7583    4.3970   52.6373 F       1  ZINC000191003171   -0.1200
     27 C27        -5.4719    4.1048   52.0889 C.ar    1  ZINC000191003171   -0.1700
     28 H28        -1.0935    3.0668   46.9890 H       1  ZINC000191003171    0.0800
     29 H29        -1.7419    1.4092   47.0035 H       1  ZINC000191003171    0.0800
     30 H30        -2.2485    2.5741   48.2505 H       1  ZINC000191003171    0.0600
     31 H31         0.4531    0.3712   47.0918 H       1  ZINC000191003171    0.1400
     32 H32         2.6462    0.6819   50.7364 H       1  ZINC000191003171    0.1400
     33 H33         1.0988    2.4306   51.5184 H       1  ZINC000191003171    0.1400
     34 H34        -0.5233    4.1048   50.9300 H       1  ZINC000191003171    0.0900
     35 H35        -1.3785    4.0455   49.3702 H       1  ZINC000191003171    0.0500
     36 H36        -2.7154    2.2636   50.2267 H       1  ZINC000191003171    0.3500
     37 H37        -3.1156    4.9721   53.3387 H       1  ZINC000191003171    0.0600
     38 H38        -2.4326    3.3370   53.5073 H       1  ZINC000191003171    0.0700
     39 H39        -1.4738    4.6276   52.7434 H       1  ZINC000191003171    0.0600
     40 H40        -3.8698    1.2937   51.1364 H       1  ZINC000191003171    0.1500
     41 H41        -6.1353    0.3746   51.4264 H       1  ZINC000191003171    0.1600
     42 H42        -8.8161    2.6592   54.3638 H       1  ZINC000191003171    0.1300
     43 H43        -9.8778    1.2368   54.2316 H       1  ZINC000191003171    0.1400
     44 H44        -8.1328    1.0221   54.5092 H       1  ZINC000191003171    0.1300
     45 H45        -5.2853    5.1523   52.2740 H       1  ZINC000191003171    0.1500
@<TRIPOS>BOND
     1     1     2    1
     2     1    28    1
     3     1    29    1
     4     1    30    1
     5     2    11   ar
     6     2     3   ar
     7     3     4   ar
     8     3    31    1
     9     4     5    1
    10     4     9   ar
    11     5     6    1
    12     5     7    1
    13     5     8    1
    14     9    10   ar
    15     9    32    1
    16    10    11   ar
    17    10    33    1
    18    11    12    1
    19    12    13    1
    20    12    34    1
    21    12    35    1
    22    13    14    1
    23    13    36    1
    24    14    15    1
    25    14    16    1
    26    14    17    1
    27    16    37    1
    28    16    38    1
    29    16    39    1
    30    17    27   ar
    31    17    18   ar
    32    18    19   ar
    33    18    40    1
    34    19    20   ar
    35    19    41    1
    36    20    21    1
    37    20    25   ar
    38    21    22    1
    39    21    23    2
    40    21    24    2
    41    22    42    1
    42    22    43    1
    43    22    44    1
    44    25    26    1
    45    25    27   ar
    46    27    45    1
@<TRIPOS>SUBSTRUCTURE
     1 ZINC000191003171        1 TEMP              0 ****  ****    0 ROOT


##########                                Name:    ZINC000771225867
##########                DOCK_Rotatable_Bonds:                   9
##########                         Heavy_Atoms:                  23
##########                    Molecular_Weight:             355.802
##########                DOCK_Rotatable_Bonds:                   9
##########                       Formal_Charge:        -3.12924e-07
##########                     HBond_Acceptors:                   9
##########                        HBond_Donors:                   3
##########                         Heavy_Atoms:                  23
##########                          Grid_Score:          -28.629261
##########                     Grid_vdw_energy:          -28.393127
##########                      Grid_es_energy:           -0.236134
##########           Internal_energy_repulsive:            8.690053

@<TRIPOS>MOLECULE
ZINC000771225867
 37 38 1 0 0
SMALL
USER_CHARGES


@<TRIPOS>ATOM
      1 C1         -4.8109    2.5130   50.9206 C.3     1  ZINC000771225867    0.0400
      2 O2         -5.8861    2.2496   51.8243 O.3     1  ZINC000771225867   -0.3600
      3 C3         -6.6127    1.1337   51.6035 C.2     1  ZINC000771225867    0.5500
      4 O4         -6.3344    0.4006   50.6728 O.2     1  ZINC000771225867   -0.4900
      5 C5         -7.6983    0.8164   52.4544 C.2     1  ZINC000771225867   -0.3400
      6 C6         -7.9214    1.3304   53.7051 C.2     1  ZINC000771225867    0.2700
      7 Cl7        -6.8666    2.4879   54.4542 Cl      1  ZINC000771225867    0.0400
      8 N8         -9.0017    0.8703   54.2837 N.2     1  ZINC000771225867   -0.5500
      9 C9         -9.7124    0.0047   53.6189 C.2     1  ZINC000771225867    0.3400
     10 N10       -10.8740   -0.5761   54.0796 N.pl3   1  ZINC000771225867   -0.6700
     11 C11       -11.5520   -0.0251   55.2555 C.3     1  ZINC000771225867    0.1700
     12 C12       -11.5832   -1.0617   56.3489 C.ar    1  ZINC000771225867   -0.0800
     13 C13       -12.6339   -1.9573   56.4218 C.ar    1  ZINC000771225867   -0.1300
     14 C14       -12.6654   -2.9097   57.4239 C.ar    1  ZINC000771225867   -0.0800
     15 C15       -11.6468   -2.9684   58.3548 C.ar    1  ZINC000771225867   -0.2000
     16 C16       -10.5911   -2.0707   58.2839 C.ar    1  ZINC000771225867    0.1300
     17 O17        -9.5874   -2.1267   59.1984 O.3     1  ZINC000771225867   -0.2900
     18 C18        -9.6454   -1.1981   60.2829 C.3     1  ZINC000771225867    0.0400
     19 C19        -8.6969   -0.0572   60.0186 C.2     1  ZINC000771225867    0.5200
     20 N20        -8.9083    1.1424   60.5954 N.am    1  ZINC000771225867   -0.8500
     21 O21        -7.7433   -0.2186   59.2867 O.2     1  ZINC000771225867   -0.5200
     22 C22       -10.5589   -1.1199   57.2744 C.ar    1  ZINC000771225867   -0.1200
     23 S23        -9.0087   -0.3042   52.0924 S.3     1  ZINC000771225867    0.2200
     24 H24        -4.0987    1.6885   50.9530 H       1  ZINC000771225867    0.0600
     25 H25        -5.2034    2.6145   49.9087 H       1  ZINC000771225867    0.0600
     26 H26        -4.3106    3.4370   51.2106 H       1  ZINC000771225867    0.1000
     27 H27       -11.2427   -1.3497   53.6252 H       1  ZINC000771225867    0.4200
     28 H28       -11.0140    0.8560   55.6055 H       1  ZINC000771225867    0.0900
     29 H29       -12.5716    0.2535   54.9898 H       1  ZINC000771225867    0.0900
     30 H30       -13.4315   -1.9127   55.6950 H       1  ZINC000771225867    0.1300
     31 H31       -13.4875   -3.6080   57.4788 H       1  ZINC000771225867    0.1300
     32 H32       -11.6721   -3.7122   59.1375 H       1  ZINC000771225867    0.1300
     33 H33       -10.6604   -0.8123   60.3770 H       1  ZINC000771225867    0.1000
     34 H34        -9.3604   -1.7006   61.2073 H       1  ZINC000771225867    0.1000
     35 H35        -8.2971    1.8764   60.4262 H       1  ZINC000771225867    0.4000
     36 H36        -9.6715    1.2717   61.1798 H       1  ZINC000771225867    0.4100
     37 H37        -9.7383   -0.4201   57.2170 H       1  ZINC000771225867    0.1400
@<TRIPOS>BOND
     1     1     2    1
     2     1    24    1
     3     1    25    1
     4     1    26    1
     5     2     3    1
     6     3     4    2
     7     3     5    1
     8     5    23    1
     9     5     6    2
    10     6     7    1
    11     6     8    1
    12     8     9    2
    13     9    10    1
    14     9    23    1
    15    10    11    1
    16    10    27    1
    17    11    12    1
    18    11    28    1
    19    11    29    1
    20    12    22   ar
    21    12    13   ar
    22    13    14   ar
    23    13    30    1
    24    14    15   ar
    25    14    31    1
    26    15    16   ar
    27    15    32    1
    28    16    17    1
    29    16    22   ar
    30    17    18    1
    31    18    19    1
    32    18    33    1
    33    18    34    1
    34    19    20   am
    35    19    21    2
    36    20    35    1
    37    20    36    1
    38    22    37    1
@<TRIPOS>SUBSTRUCTURE
     1 ZINC000771225867        1 TEMP              0 ****  ****    0 ROOT


##########                                Name:    ZINC000563265674
##########                DOCK_Rotatable_Bonds:                   7
##########                         Heavy_Atoms:                  25
##########                    Molecular_Weight:             386.859
##########                DOCK_Rotatable_Bonds:                   7
##########                       Formal_Charge:          0.00999963
##########                     HBond_Acceptors:                  10
##########                        HBond_Donors:                   2
##########                         Heavy_Atoms:                  25
##########                          Grid_Score:          -28.627312
##########                     Grid_vdw_energy:          -27.766764
##########                      Grid_es_energy:           -0.860547
##########           Internal_energy_repulsive:           12.788156

@<TRIPOS>MOLECULE
ZINC000563265674
 44 45 1 0 0
SMALL
USER_CHARGES


@<TRIPOS>ATOM
      1 C1         -0.8048    2.1503   56.5574 C.3     1  ZINC000563265674   -0.0600
      2 C2         -2.0774    2.6483   55.9223 C.2     1  ZINC000563265674    0.1700
      3 N3         -2.1969    3.1469   54.7282 N.2     1  ZINC000563265674   -0.3800
      4 O4         -3.3510    3.4533   54.5149 O.3     1  ZINC000563265674    0.0900
      5 C5         -4.1000    3.1707   55.5850 C.2     1  ZINC000563265674    0.1900
      6 C6         -5.5829    3.3984   55.7281 C.3     1  ZINC000563265674    0.2100
      7 C7         -5.8339    4.8193   56.2368 C.3     1  ZINC000563265674   -0.1400
      8 C8         -6.2603    3.2164   54.3684 C.3     1  ZINC000563265674   -0.1800
      9 N9         -6.1368    2.4309   56.6846 N.3     1  ZINC000563265674   -0.6600
     10 C10        -7.4346    2.8855   57.2014 C.3     1  ZINC000563265674    0.0400
     11 C11        -8.1388    1.7350   57.8731 C.2     1  ZINC000563265674    0.5200
     12 O12        -7.5109    0.7538   58.2113 O.2     1  ZINC000563265674   -0.4900
     13 N13        -9.4662    1.7961   58.0981 N.am    1  ZINC000563265674   -0.6700
     14 C14       -10.1204    0.7273   58.7220 C.ar    1  ZINC000563265674    0.1400
     15 C15       -10.4567   -0.4042   57.9917 C.ar    1  ZINC000563265674   -0.0300
     16 C16       -11.1019   -1.4577   58.6103 C.ar    1  ZINC000563265674   -0.6400
     17 S17       -11.5287   -2.8943   57.6837 S.o2    1  ZINC000563265674    2.5000
     18 C18       -13.3166   -2.7451   57.4153 C.3     1  ZINC000563265674   -0.6500
     19 O19       -10.8260   -2.7423   56.4580 O.2     1  ZINC000563265674   -0.9300
     20 O20       -11.2448   -3.9747   58.5619 O.2     1  ZINC000563265674   -0.9300
     21 C21       -11.4129   -1.3863   59.9556 C.ar    1  ZINC000563265674   -0.0300
     22 C22       -11.0799   -0.2606   60.6868 C.ar    1  ZINC000563265674   -0.1100
     23 C23       -10.4294    0.7943   60.0755 C.ar    1  ZINC000563265674   -0.0200
     24 Cl24      -10.0110    2.2069   60.9937 Cl      1  ZINC000563265674   -0.0500
     25 N25        -3.2990    2.6530   56.4849 N.2     1  ZINC000563265674   -0.4700
     26 H26        -0.6761    1.0917   56.3316 H       1  ZINC000563265674    0.0900
     27 H27         0.0421    2.7115   56.1628 H       1  ZINC000563265674    0.0900
     28 H28        -0.8600    2.2873   57.6375 H       1  ZINC000563265674    0.0900
     29 H29        -5.4228    5.5373   55.5271 H       1  ZINC000563265674    0.0800
     30 H30        -6.9064    4.9840   56.3403 H       1  ZINC000563265674    0.0800
     31 H31        -5.3512    4.9490   57.2055 H       1  ZINC000563265674    0.0700
     32 H32        -6.0816    2.2041   54.0060 H       1  ZINC000563265674    0.0700
     33 H33        -7.3328    3.3811   54.4719 H       1  ZINC000563265674    0.0800
     34 H34        -5.8493    3.9343   53.6586 H       1  ZINC000563265674    0.0800
     35 H35        -6.2141    1.5148   56.2686 H       1  ZINC000563265674    0.3600
     36 H36        -7.2776    3.6868   57.9235 H       1  ZINC000563265674    0.1200
     37 H37        -8.0451    3.2538   56.3770 H       1  ZINC000563265674    0.0800
     38 H38        -9.9683    2.5807   57.8276 H       1  ZINC000563265674    0.4200
     39 H39       -10.2147   -0.4609   56.9407 H       1  ZINC000563265674    0.1700
     40 H40       -13.5260   -1.8284   56.8642 H       1  ZINC000563265674    0.1300
     41 H41       -13.6708   -3.6023   56.8427 H       1  ZINC000563265674    0.1400
     42 H42       -13.8272   -2.7151   58.3779 H       1  ZINC000563265674    0.1400
     43 H43       -11.9173   -2.2113   60.4364 H       1  ZINC000563265674    0.1500
     44 H44       -11.3245   -0.2078   61.7374 H       1  ZINC000563265674    0.1500
@<TRIPOS>BOND
     1     1     2    1
     2     1    26    1
     3     1    27    1
     4     1    28    1
     5     2    25    1
     6     2     3    2
     7     3     4    1
     8     4     5    1
     9     5     6    1
    10     5    25    2
    11     6     7    1
    12     6     8    1
    13     6     9    1
    14     7    29    1
    15     7    30    1
    16     7    31    1
    17     8    32    1
    18     8    33    1
    19     8    34    1
    20     9    10    1
    21     9    35    1
    22    10    11    1
    23    10    36    1
    24    10    37    1
    25    11    12    2
    26    11    13   am
    27    13    14    1
    28    13    38    1
    29    14    23   ar
    30    14    15   ar
    31    15    16   ar
    32    15    39    1
    33    16    17    1
    34    16    21   ar
    35    17    18    1
    36    17    19    2
    37    17    20    2
    38    18    40    1
    39    18    41    1
    40    18    42    1
    41    21    22   ar
    42    21    43    1
    43    22    23   ar
    44    22    44    1
    45    23    24    1
@<TRIPOS>SUBSTRUCTURE
     1 ZINC000563265674        1 TEMP              0 ****  ****    0 ROOT


##########                                Name:    ZINC000461678839
##########                DOCK_Rotatable_Bonds:                   6
##########                         Heavy_Atoms:                  28
##########                    Molecular_Weight:             404.939
##########                DOCK_Rotatable_Bonds:                   6
##########                       Formal_Charge:          -0.0200003
##########                     HBond_Acceptors:                   7
##########                        HBond_Donors:                   0
##########                         Heavy_Atoms:                  28
##########                          Grid_Score:          -28.624411
##########                     Grid_vdw_energy:          -27.840546
##########                      Grid_es_energy:           -0.783864
##########           Internal_energy_repulsive:           16.146656

@<TRIPOS>MOLECULE
ZINC000461678839
 57 60 1 0 0
SMALL
USER_CHARGES


@<TRIPOS>ATOM
      1 C1         -2.2860    4.4665   54.8394 C.3     1  ZINC000461678839   -0.1500
      2 C2         -2.7287    4.2515   53.3908 C.3     1  ZINC000461678839   -0.0900
      3 H3         -3.4233    5.0433   53.1102 H       1  ZINC000461678839    0.0700
      4 C4         -3.4476    2.8881   53.2806 C.3     1  ZINC000461678839   -0.1100
      5 C5         -4.2519    2.8633   52.0082 C.3     1  ZINC000461678839   -0.1200
      6 C6         -3.4710    2.2818   50.8162 C.3     1  ZINC000461678839    0.0600
      7 N7         -2.0703    2.7531   50.7472 N.3     1  ZINC000461678839   -0.4600
      8 C8         -1.4964    2.4282   49.5283 C.2     1  ZINC000461678839    0.3700
      9 N9         -2.0682    2.5111   48.3501 N.2     1  ZINC000461678839   -0.3100
     10 N10        -1.2463    2.1305   47.4382 N.2     1  ZINC000461678839   -0.2500
     11 C11        -0.1109    1.7851   47.9759 C.2     1  ZINC000461678839    0.1700
     12 C12         1.1079    1.2839   47.2448 C.3     1  ZINC000461678839    0.1500
     13 O13         1.5587    2.2840   46.3291 O.3     1  ZINC000461678839   -0.3100
     14 C14         2.7155    2.0325   45.6612 C.ar    1  ZINC000461678839    0.1400
     15 C15         3.3997    0.8457   45.8796 C.ar    1  ZINC000461678839   -0.2000
     16 C16         4.5753    0.5920   45.1999 C.ar    1  ZINC000461678839   -0.0700
     17 C17         5.0707    1.5209   44.3020 C.ar    1  ZINC000461678839   -0.0700
     18 Cl18        6.5485    1.2001   43.4495 Cl      1  ZINC000461678839   -0.0700
     19 C19         4.3895    2.7051   44.0825 C.ar    1  ZINC000461678839   -0.0700
     20 C20         3.2106    2.9599   44.7560 C.ar    1  ZINC000461678839   -0.1400
     21 N21        -0.2281    1.9674   49.3261 N.pl3   1  ZINC000461678839   -0.4600
     22 C22         0.7933    1.7125   50.3449 C.3     1  ZINC000461678839    0.1200
     23 C23         1.4531    3.0330   50.7471 C.3     1  ZINC000461678839   -0.1400
     24 H24         0.6979    3.8029   50.9057 H       1  ZINC000461678839    0.0900
     25 C25         2.4673    3.4829   49.6675 C.3     1  ZINC000461678839   -0.1500
     26 C26         3.6405    4.0184   50.5273 C.3     1  ZINC000461678839    0.0500
     27 O27         3.6739    3.1140   51.6522 O.3     1  ZINC000461678839   -0.3700
     28 C28         2.3064    2.8449   52.0164 C.3     1  ZINC000461678839    0.0400
     29 C29        -1.9181    4.1597   51.0319 C.3     1  ZINC000461678839    0.0700
     30 C30        -1.5591    4.3141   52.5213 C.3     1  ZINC000461678839   -0.1100
     31 H31        -1.7942    5.4352   54.9291 H       1  ZINC000461678839    0.0500
     32 H32        -3.1575    4.4396   55.4936 H       1  ZINC000461678839    0.0500
     33 H33        -1.5908    3.6780   55.1277 H       1  ZINC000461678839    0.0600
     34 H34        -2.7091    2.0865   53.2614 H       1  ZINC000461678839    0.0700
     35 H35        -4.1114    2.7551   54.1348 H       1  ZINC000461678839    0.0700
     36 H36        -5.1459    2.2611   52.1698 H       1  ZINC000461678839    0.0800
     37 H37        -4.5563    3.8814   51.7656 H       1  ZINC000461678839    0.0700
     38 H38        -3.4705    1.1947   50.8953 H       1  ZINC000461678839    0.0700
     39 H39        -3.9801    2.5626   49.8942 H       1  ZINC000461678839    0.0500
     40 H40         1.8983    1.0660   47.9629 H       1  ZINC000461678839    0.0800
     41 H41         0.8549    0.3766   46.6964 H       1  ZINC000461678839    0.1000
     42 H42         3.0137    0.1207   46.5808 H       1  ZINC000461678839    0.1400
     43 H43         5.1082   -0.3319   45.3696 H       1  ZINC000461678839    0.1400
     44 H44         4.7774    3.4289   43.3810 H       1  ZINC000461678839    0.1400
     45 H45         2.6791    3.8843   44.5844 H       1  ZINC000461678839    0.1400
     46 H46         0.3284    1.2574   51.2195 H       1  ZINC000461678839    0.1100
     47 H47         1.5479    1.0372   49.9418 H       1  ZINC000461678839    0.1000
     48 H48         2.7862    2.6379   49.0573 H       1  ZINC000461678839    0.0800
     49 H49         2.0482    4.2739   49.0457 H       1  ZINC000461678839    0.0900
     50 H50         4.5764    3.9730   49.9704 H       1  ZINC000461678839    0.1000
     51 H51         3.4394    5.0368   50.8595 H       1  ZINC000461678839    0.0600
     52 H52         1.9846    3.5425   52.7896 H       1  ZINC000461678839    0.0500
     53 H53         2.2135    1.8204   52.3768 H       1  ZINC000461678839    0.1100
     54 H54        -1.1201    4.5748   50.4163 H       1  ZINC000461678839    0.0900
     55 H55        -2.8527    4.6800   50.8227 H       1  ZINC000461678839    0.0600
     56 H56        -1.0653    5.2748   52.6666 H       1  ZINC000461678839    0.0700
     57 H57        -0.8677    3.5193   52.8011 H       1  ZINC000461678839    0.0700
@<TRIPOS>BOND
     1     1     2    1
     2     1    31    1
     3     1    32    1
     4     1    33    1
     5     2     3    1
     6     2    30    1
     7     2     4    1
     8     4     5    1
     9     4    34    1
    10     4    35    1
    11     5     6    1
    12     5    36    1
    13     5    37    1
    14     6     7    1
    15     6    38    1
    16     6    39    1
    17     7     8    1
    18     7    29    1
    19     8    21    1
    20     8     9    2
    21     9    10    1
    22    10    11    2
    23    11    12    1
    24    11    21    1
    25    12    13    1
    26    12    40    1
    27    12    41    1
    28    13    14    1
    29    14    20   ar
    30    14    15   ar
    31    15    16   ar
    32    15    42    1
    33    16    17   ar
    34    16    43    1
    35    17    18    1
    36    17    19   ar
    37    19    20   ar
    38    19    44    1
    39    20    45    1
    40    21    22    1
    41    22    23    1
    42    22    46    1
    43    22    47    1
    44    23    24    1
    45    23    28    1
    46    23    25    1
    47    25    26    1
    48    25    48    1
    49    25    49    1
    50    26    27    1
    51    26    50    1
    52    26    51    1
    53    27    28    1
    54    28    52    1
    55    28    53    1
    56    29    30    1
    57    29    54    1
    58    29    55    1
    59    30    56    1
    60    30    57    1
@<TRIPOS>SUBSTRUCTURE
     1 ZINC000461678839        1 TEMP              0 ****  ****    0 ROOT


##########                                Name:    ZINC000533037883
##########                DOCK_Rotatable_Bonds:                   7
##########                         Heavy_Atoms:                  27
##########                    Molecular_Weight:             368.479
##########                DOCK_Rotatable_Bonds:                   7
##########                       Formal_Charge:          0.00999947
##########                     HBond_Acceptors:                   6
##########                        HBond_Donors:                   1
##########                         Heavy_Atoms:                  27
##########                          Grid_Score:          -28.602671
##########                     Grid_vdw_energy:          -27.425938
##########                      Grid_es_energy:           -1.176733
##########           Internal_energy_repulsive:           14.200137

@<TRIPOS>MOLECULE
ZINC000533037883
 55 58 1 0 0
SMALL
USER_CHARGES


@<TRIPOS>ATOM
      1 O1         -7.3081    0.8365   57.4846 O.2     1  ZINC000533037883   -0.5900
      2 C2         -7.5861    1.8124   58.1544 C.2     1  ZINC000533037883    0.7100
      3 N3         -7.1733    3.0355   57.7670 N.am    1  ZINC000533037883   -0.7500
      4 C4         -6.3844    3.1884   56.5420 C.3     1  ZINC000533037883    0.1400
      5 C5         -7.3105    3.5591   55.3820 C.3     1  ZINC000533037883   -0.0500
      6 C6         -6.6019    3.3124   54.0750 C.2     1  ZINC000533037883   -0.2300
      7 C7         -5.2755    3.4562   53.8490 C.2     1  ZINC000533037883    0.0600
      8 N8         -5.0416    3.1389   52.5555 N.pl3   1  ZINC000533037883   -0.3200
      9 C9         -3.7953    3.1559   51.9141 C.ar    1  ZINC000533037883    0.1600
     10 C10        -3.6638    2.6309   50.6355 C.ar    1  ZINC000533037883   -0.1400
     11 C11        -2.4344    2.6492   50.0062 C.ar    1  ZINC000533037883   -0.0900
     12 C12        -1.3353    3.1891   50.6483 C.ar    1  ZINC000533037883   -0.1300
     13 C13        -1.4632    3.7127   51.9217 C.ar    1  ZINC000533037883   -0.0900
     14 C14        -2.6912    3.7029   52.5538 C.ar    1  ZINC000533037883   -0.1200
     15 N15        -6.2654    2.7893   51.9702 N.2     1  ZINC000533037883   -0.2900
     16 C16        -7.1986    2.8886   52.8824 C.2     1  ZINC000533037883    0.0700
     17 N17        -8.3118    1.6718   59.2813 N.am    1  ZINC000533037883   -0.6300
     18 C18        -8.6608    2.8423   60.0979 C.3     1  ZINC000533037883    0.1100
     19 C19       -10.1780    2.8613   60.3092 C.3     1  ZINC000533037883   -0.1400
     20 C20       -10.6227    1.5238   60.9055 C.3     1  ZINC000533037883   -0.1100
     21 C21       -10.2849    0.3921   59.9324 C.3     1  ZINC000533037883   -0.0900
     22 H22       -10.7825    0.5710   58.9793 H       1  ZINC000533037883    0.0800
     23 C23       -10.7601   -0.9408   60.5144 C.3     1  ZINC000533037883   -0.1200
     24 H24       -10.2716   -1.1419   61.4678 H       1  ZINC000533037883    0.0900
     25 C25       -12.3051   -0.9559   60.6708 C.3     1  ZINC000533037883   -0.1500
     26 C26       -12.5987   -2.4721   60.5442 C.3     1  ZINC000533037883    0.0500
     27 O27       -11.6638   -2.9547   59.5663 O.3     1  ZINC000533037883   -0.3900
     28 C28       -10.5154   -2.0939   59.5176 C.3     1  ZINC000533037883    0.0500
     29 C29        -8.7741    0.3458   59.7135 C.3     1  ZINC000533037883    0.1300
     30 H30        -7.3984    3.8146   58.2992 H       1  ZINC000533037883    0.4000
     31 H31        -5.6444    3.9762   56.6823 H       1  ZINC000533037883    0.0700
     32 H32        -5.8776    2.2499   56.3167 H       1  ZINC000533037883    0.0700
     33 H33        -8.2121    2.9483   55.4273 H       1  ZINC000533037883    0.0800
     34 H34        -7.5810    4.6124   55.4554 H       1  ZINC000533037883    0.0800
     35 H35        -4.5365    3.7688   54.5719 H       1  ZINC000533037883    0.1800
     36 H36        -4.5217    2.2085   50.1337 H       1  ZINC000533037883    0.1300
     37 H37        -2.3316    2.2409   49.0115 H       1  ZINC000533037883    0.1300
     38 H38        -0.3749    3.2016   50.1543 H       1  ZINC000533037883    0.1300
     39 H39        -0.6029    4.1337   52.4208 H       1  ZINC000533037883    0.1300
     40 H40        -2.7905    4.1123   53.5483 H       1  ZINC000533037883    0.1400
     41 H41        -8.2492    2.6844   52.7380 H       1  ZINC000533037883    0.1900
     42 H42        -8.1583    2.7777   61.0629 H       1  ZINC000533037883    0.0700
     43 H43        -8.3522    3.7522   59.5830 H       1  ZINC000533037883    0.0800
     44 H44       -10.4400    3.6692   60.9924 H       1  ZINC000533037883    0.0800
     45 H45       -10.6767    3.0170   59.3527 H       1  ZINC000533037883    0.0700
     46 H46       -10.1050    1.3572   61.8501 H       1  ZINC000533037883    0.0700
     47 H47       -11.6985    1.5438   61.0798 H       1  ZINC000533037883    0.0700
     48 H48       -12.6047   -0.5781   61.6484 H       1  ZINC000533037883    0.0800
     49 H49       -12.7866   -0.3943   59.8703 H       1  ZINC000533037883    0.0800
     50 H50       -12.4369   -2.9699   61.5003 H       1  ZINC000533037883    0.0600
     51 H51       -13.6210   -2.6322   60.2015 H       1  ZINC000533037883    0.0900
     52 H52       -10.3978   -1.6910   58.5116 H       1  ZINC000533037883    0.0700
     53 H53        -9.6229   -2.6519   59.8004 H       1  ZINC000533037883    0.0700
     54 H54        -8.5383   -0.3925   58.9469 H       1  ZINC000533037883    0.1000
     55 H55        -8.2776    0.0783   60.6463 H       1  ZINC000533037883    0.0700
@<TRIPOS>BOND
     1     1     2    2
     2     2     3   am
     3     2    17   am
     4     3     4    1
     5     3    30    1
     6     4     5    1
     7     4    31    1
     8     4    32    1
     9     5     6    1
    10     5    33    1
    11     5    34    1
    12     6    16    1
    13     6     7    2
    14     7     8    1
    15     7    35    1
    16     8     9    1
    17     8    15    1
    18     9    14   ar
    19     9    10   ar
    20    10    11   ar
    21    10    36    1
    22    11    12   ar
    23    11    37    1
    24    12    13   ar
    25    12    38    1
    26    13    14   ar
    27    13    39    1
    28    14    40    1
    29    15    16    2
    30    16    41    1
    31    17    29    1
    32    17    18    1
    33    18    19    1
    34    18    42    1
    35    18    43    1
    36    19    20    1
    37    19    44    1
    38    19    45    1
    39    20    21    1
    40    20    46    1
    41    20    47    1
    42    21    22    1
    43    21    23    1
    44    21    29    1
    45    23    24    1
    46    23    28    1
    47    23    25    1
    48    25    26    1
    49    25    48    1
    50    25    49    1
    51    26    27    1
    52    26    50    1
    53    26    51    1
    54    27    28    1
    55    28    52    1
    56    28    53    1
    57    29    54    1
    58    29    55    1
@<TRIPOS>SUBSTRUCTURE
     1 ZINC000533037883        1 TEMP              0 ****  ****    0 ROOT


##########                                Name:    ZINC000826435081
##########                DOCK_Rotatable_Bonds:                   7
##########                         Heavy_Atoms:                  28
##########                    Molecular_Weight:             388.361
##########                DOCK_Rotatable_Bonds:                   7
##########                       Formal_Charge:           0.0099996
##########                     HBond_Acceptors:                  12
##########                        HBond_Donors:                   3
##########                         Heavy_Atoms:                  28
##########                          Grid_Score:          -28.581766
##########                     Grid_vdw_energy:          -28.056923
##########                      Grid_es_energy:           -0.524842
##########           Internal_energy_repulsive:            5.152266

@<TRIPOS>MOLECULE
ZINC000826435081
 45 48 1 0 0
SMALL
USER_CHARGES


@<TRIPOS>ATOM
      1 O1         -8.2275    3.9569   55.6362 O.2     1  ZINC000826435081   -0.5700
      2 C2         -7.6818    2.9227   55.3029 C.2     1  ZINC000826435081    0.7200
      3 N3         -6.9836    2.8700   54.1512 N.am    1  ZINC000826435081   -0.7300
      4 C4         -6.8875    4.0568   53.2979 C.3     1  ZINC000826435081    0.1500
      5 C5         -5.7850    3.8492   52.2577 C.3     1  ZINC000826435081    0.0400
      6 H6         -5.6005    4.7854   51.7306 H       1  ZINC000826435081    0.0800
      7 C7         -6.2213    2.7756   51.2566 C.3     1  ZINC000826435081    0.0300
      8 O8         -5.1427    2.5080   50.3554 O.3     1  ZINC000826435081   -0.3800
      9 C9         -3.9434    2.0811   51.0084 C.3     1  ZINC000826435081    0.0200
     10 C10        -3.5070    3.1547   52.0095 C.3     1  ZINC000826435081    0.0200
     11 O11        -4.5852    3.4239   52.9109 O.3     1  ZINC000826435081   -0.3700
     12 N12        -7.7702    1.8307   56.0879 N.am    1  ZINC000826435081   -0.6400
     13 C13        -8.4960    1.8855   57.2852 C.2     1  ZINC000826435081    0.3300
     14 N14        -7.9973    1.7678   58.4934 N.2     1  ZINC000826435081   -0.2800
     15 N15        -9.0477    1.8792   59.4134 N.pl3   1  ZINC000826435081   -0.3300
     16 C16        -8.9331    1.8081   60.8063 C.ar    1  ZINC000826435081    0.2200
     17 C17        -8.8996    2.9705   61.5620 C.ar    1  ZINC000826435081   -0.1300
     18 C18        -8.7864    2.8998   62.9375 C.ar    1  ZINC000826435081   -0.0500
     19 C19        -8.7054    1.6723   63.5697 C.ar    1  ZINC000826435081   -0.1500
     20 C20        -8.7374    0.5044   62.8297 C.ar    1  ZINC000826435081    0.1500
     21 F21        -8.6584   -0.6926   63.4509 F       1  ZINC000826435081   -0.1100
     22 C22        -8.8577    0.5641   61.4419 C.ar    1  ZINC000826435081   -0.0500
     23 C23        -8.8927   -0.6850   60.6422 C.2     1  ZINC000826435081    0.2100
     24 N24        -9.9683   -1.3174   60.2159 N.2     1  ZINC000826435081   -0.2800
     25 N25        -9.5804   -2.3562   59.5593 N.pl3   1  ZINC000826435081   -0.2300
     26 N26        -8.2939   -2.4023   59.5558 N.2     1  ZINC000826435081   -0.0500
     27 N27        -7.8366   -1.3874   60.2073 N.2     1  ZINC000826435081   -0.2300
     28 C28       -10.1969    2.0682   58.7149 C.2     1  ZINC000826435081    0.0700
     29 C29        -9.8822    2.0821   57.3997 C.2     1  ZINC000826435081   -0.2400
     30 H30        -6.5448    2.0460   53.8873 H       1  ZINC000826435081    0.4000
     31 H31        -7.8391    4.2183   52.7914 H       1  ZINC000826435081    0.0800
     32 H32        -6.6499    4.9266   53.9105 H       1  ZINC000826435081    0.0900
     33 H33        -6.4834    1.8632   51.7921 H       1  ZINC000826435081    0.0700
     34 H34        -7.0855    3.1307   50.6951 H       1  ZINC000826435081    0.1100
     35 H35        -4.1289    1.1454   51.5357 H       1  ZINC000826435081    0.0600
     36 H36        -3.1579    1.9333   50.2674 H       1  ZINC000826435081    0.1100
     37 H37        -2.6428    2.7996   52.5710 H       1  ZINC000826435081    0.1100
     38 H38        -3.2449    4.0672   51.4740 H       1  ZINC000826435081    0.0600
     39 H39        -7.3315    1.0069   55.8240 H       1  ZINC000826435081    0.4100
     40 H40        -8.9618    3.9323   61.0748 H       1  ZINC000826435081    0.1500
     41 H41        -8.7608    3.8078   63.5218 H       1  ZINC000826435081    0.1500
     42 H42        -8.6163    1.6257   64.6450 H       1  ZINC000826435081    0.1500
     43 H43       -10.1660   -3.0021   59.1343 H       1  ZINC000826435081    0.4800
     44 H44       -11.1846    2.1905   59.1345 H       1  ZINC000826435081    0.1800
     45 H45       -10.5750    2.2133   56.5818 H       1  ZINC000826435081    0.1800
@<TRIPOS>BOND
     1     1     2    2
     2     2     3   am
     3     2    12   am
     4     3     4    1
     5     3    30    1
     6     4     5    1
     7     4    31    1
     8     4    32    1
     9     5     6    1
    10     5    11    1
    11     5     7    1
    12     7     8    1
    13     7    33    1
    14     7    34    1
    15     8     9    1
    16     9    10    1
    17     9    35    1
    18     9    36    1
    19    10    11    1
    20    10    37    1
    21    10    38    1
    22    12    13    1
    23    12    39    1
    24    13    29    1
    25    13    14    2
    26    14    15    1
    27    15    16    1
    28    15    28    1
    29    16    22   ar
    30    16    17   ar
    31    17    18   ar
    32    17    40    1
    33    18    19   ar
    34    18    41    1
    35    19    20   ar
    36    19    42    1
    37    20    21    1
    38    20    22   ar
    39    22    23    1
    40    23    27    1
    41    23    24    2
    42    24    25    1
    43    25    26    1
    44    25    43    1
    45    26    27    2
    46    28    29    2
    47    28    44    1
    48    29    45    1
@<TRIPOS>SUBSTRUCTURE
     1 ZINC000826435081        1 TEMP              0 ****  ****    0 ROOT


##########                                Name:    ZINC000175255939
##########                DOCK_Rotatable_Bonds:                   8
##########                         Heavy_Atoms:                  28
##########                    Molecular_Weight:             394.375
##########                DOCK_Rotatable_Bonds:                   8
##########                       Formal_Charge:          -0.0399999
##########                     HBond_Acceptors:                   9
##########                        HBond_Donors:                   1
##########                         Heavy_Atoms:                  28
##########                          Grid_Score:          -28.563961
##########                     Grid_vdw_energy:          -28.769249
##########                      Grid_es_energy:            0.205287
##########           Internal_energy_repulsive:            8.970179

@<TRIPOS>MOLECULE
ZINC000175255939
 48 50 1 0 0
SMALL
USER_CHARGES


@<TRIPOS>ATOM
      1 C1          3.7985   -1.0179   50.1232 C.3     1  ZINC000175255939    0.0300
      2 O2          2.6981   -0.1515   49.7399 O.3     1  ZINC000175255939   -0.3600
      3 C3          3.0165    1.0407   49.2117 C.2     1  ZINC000175255939    0.4600
      4 O4          4.1763    1.3448   49.0621 O.2     1  ZINC000175255939   -0.5000
      5 C5          1.9276    1.9999   48.8055 C.3     1  ZINC000175255939   -0.0800
      6 H6          2.3061    3.0209   48.8538 H       1  ZINC000175255939    0.1100
      7 C7          1.4810    1.6886   47.3756 C.3     1  ZINC000175255939   -0.1200
      8 C8          0.3753    2.6624   46.9632 C.3     1  ZINC000175255939   -0.1100
      9 C9         -0.8150    2.5144   47.9130 C.3     1  ZINC000175255939   -0.1200
     10 C10        -0.3684    2.8258   49.3428 C.3     1  ZINC000175255939   -0.1000
     11 H11         0.0100    3.8468   49.3911 H       1  ZINC000175255939    0.1100
     12 C12        -1.5410    2.6799   50.2782 C.2     1  ZINC000175255939    0.5100
     13 O13        -1.7401    1.6243   50.8411 O.2     1  ZINC000175255939   -0.4800
     14 N14        -2.3683    3.7227   50.4893 N.am    1  ZINC000175255939   -0.6300
     15 C15        -3.4489    3.5879   51.3495 C.2     1  ZINC000175255939    0.2100
     16 C16        -4.4797    2.7040   51.2318 C.2     1  ZINC000175255939   -0.2600
     17 C17        -5.2978    2.9836   52.3572 C.2     1  ZINC000175255939    0.0900
     18 C18        -6.5668    2.3085   52.7254 C.ar    1  ZINC000175255939   -0.0500
     19 C19        -7.0453    1.2519   51.9526 C.ar    1  ZINC000175255939   -0.0600
     20 C20        -8.2248    0.6264   52.2971 C.ar    1  ZINC000175255939   -0.1300
     21 C21        -8.9360    1.0484   53.4125 C.ar    1  ZINC000175255939    0.1200
     22 O22       -10.0977    0.4303   53.7496 O.3     1  ZINC000175255939   -0.3200
     23 C23       -11.0295    0.1808   52.6953 C.3     1  ZINC000175255939    0.4100
     24 F24       -12.1178   -0.5418   53.1962 F       1  ZINC000175255939   -0.2000
     25 F25       -11.4789    1.3980   52.1723 F       1  ZINC000175255939   -0.2000
     26 C26        -8.4616    2.1007   54.1843 C.ar    1  ZINC000175255939   -0.1900
     27 C27        -7.2795    2.7259   53.8481 C.ar    1  ZINC000175255939   -0.0500
     28 N28        -4.7076    3.9585   53.0068 N.2     1  ZINC000175255939   -0.3600
     29 O29        -3.6820    4.2984   52.4646 O.3     1  ZINC000175255939    0.1200
     30 C30         0.7371    1.8519   49.7552 C.3     1  ZINC000175255939   -0.0900
     31 H31         3.4034   -1.9466   50.5348 H       1  ZINC000175255939    0.1000
     32 H32         4.4088   -1.2391   49.2476 H       1  ZINC000175255939    0.0600
     33 H33         4.4094   -0.5182   50.8751 H       1  ZINC000175255939    0.0600
     34 H34         2.3291    1.7941   46.6991 H       1  ZINC000175255939    0.0800
     35 H35         1.1024    0.6676   47.3274 H       1  ZINC000175255939    0.0700
     36 H36         0.7539    3.6835   47.0114 H       1  ZINC000175255939    0.0700
     37 H37         0.0573    2.4407   45.9445 H       1  ZINC000175255939    0.0800
     38 H38        -1.6027    3.2082   47.6191 H       1  ZINC000175255939    0.0700
     39 H39        -1.1936    1.4934   47.8646 H       1  ZINC000175255939    0.0800
     40 H40        -2.2084    4.5674   50.0402 H       1  ZINC000175255939    0.4300
     41 H41        -4.6373    1.9635   50.4616 H       1  ZINC000175255939    0.1800
     42 H42        -6.4929    0.9237   51.0845 H       1  ZINC000175255939    0.1400
     43 H43        -8.5961   -0.1923   51.6986 H       1  ZINC000175255939    0.1400
     44 H44       -10.5422   -0.3951   51.9085 H       1  ZINC000175255939    0.1900
     45 H45        -9.0168    2.4270   55.0513 H       1  ZINC000175255939    0.1400
     46 H46        -6.9109    3.5441   54.4490 H       1  ZINC000175255939    0.1400
     47 H47         0.3586    0.8309   49.7070 H       1  ZINC000175255939    0.0900
     48 H48         1.0553    2.0736   50.7739 H       1  ZINC000175255939    0.0800
@<TRIPOS>BOND
     1     1     2    1
     2     1    31    1
     3     1    32    1
     4     1    33    1
     5     2     3    1
     6     3     4    2
     7     3     5    1
     8     5     6    1
     9     5    30    1
    10     5     7    1
    11     7     8    1
    12     7    34    1
    13     7    35    1
    14     8     9    1
    15     8    36    1
    16     8    37    1
    17     9    10    1
    18     9    38    1
    19     9    39    1
    20    10    11    1
    21    10    12    1
    22    10    30    1
    23    12    13    2
    24    12    14   am
    25    14    15    1
    26    14    40    1
    27    15    29    1
    28    15    16    2
    29    16    17    1
    30    16    41    1
    31    17    18    1
    32    17    28    2
    33    18    27   ar
    34    18    19   ar
    35    19    20   ar
    36    19    42    1
    37    20    21   ar
    38    20    43    1
    39    21    22    1
    40    21    26   ar
    41    22    23    1
    42    23    24    1
    43    23    25    1
    44    23    44    1
    45    26    27   ar
    46    26    45    1
    47    27    46    1
    48    28    29    1
    49    30    47    1
    50    30    48    1
@<TRIPOS>SUBSTRUCTURE
     1 ZINC000175255939        1 TEMP              0 ****  ****    0 ROOT


##########                                Name:    ZINC000432833246
##########                DOCK_Rotatable_Bonds:                   5
##########                         Heavy_Atoms:                  25
##########                    Molecular_Weight:             400.318
##########                DOCK_Rotatable_Bonds:                   5
##########                       Formal_Charge:        -3.20375e-07
##########                     HBond_Acceptors:                   4
##########                        HBond_Donors:                   1
##########                         Heavy_Atoms:                  25
##########                          Grid_Score:          -28.539579
##########                     Grid_vdw_energy:          -28.027540
##########                      Grid_es_energy:           -0.512039
##########           Internal_energy_repulsive:            8.227364

@<TRIPOS>MOLECULE
ZINC000432833246
 47 51 1 0 0
SMALL
USER_CHARGES


@<TRIPOS>ATOM
      1 O1        -10.7662    2.8445   50.9113 O.2     1  ZINC000432833246   -0.5200
      2 C2        -10.7221    2.0285   51.8075 C.2     1  ZINC000432833246    0.5200
      3 C3        -11.9255    1.4926   52.5514 C.3     1  ZINC000432833246   -0.1500
      4 C4        -11.3989    0.2231   53.2598 C.3     1  ZINC000432833246   -0.1100
      5 H5        -11.5725   -0.6640   52.6506 H       1  ZINC000432833246    0.1000
      6 C6        -12.0320    0.0659   54.6438 C.3     1  ZINC000432833246    0.1300
      7 N7        -11.7452   -1.2737   55.1628 N.pl3   1  ZINC000432833246   -0.7200
      8 C8        -12.5750   -1.8391   56.1191 C.ar    1  ZINC000432833246    0.2800
      9 C9        -12.4158   -1.5394   57.4930 C.ar    1  ZINC000432833246   -0.1500
     10 C10       -11.4170   -0.6619   57.9374 C.ar    1  ZINC000432833246   -0.0700
     11 C11       -11.2953   -0.3978   59.2685 C.ar    1  ZINC000432833246   -0.1300
     12 C12       -12.1510   -0.9890   60.1946 C.ar    1  ZINC000432833246   -0.0600
     13 C13       -13.1321   -1.8460   59.7966 C.ar    1  ZINC000432833246   -0.0800
     14 Br14      -14.2804   -2.6342   61.0758 Br      1  ZINC000432833246   -0.0300
     15 C15       -13.2880   -2.1420   58.4305 C.ar    1  ZINC000432833246    0.1900
     16 N16       -14.2433   -2.9796   58.0119 N.ar    1  ZINC000432833246   -0.5000
     17 C17       -14.4011   -3.2651   56.7402 C.ar    1  ZINC000432833246    0.2400
     18 C18       -15.4966   -4.2167   56.3338 C.3     1  ZINC000432833246   -0.1100
     19 C19       -15.2494   -5.0958   55.1062 C.3     1  ZINC000432833246   -0.1700
     20 C20       -15.2319   -5.7137   56.5058 C.3     1  ZINC000432833246   -0.1600
     21 C21       -13.5903   -2.7114   55.7590 C.ar    1  ZINC000432833246   -0.2700
     22 C22        -9.8890    0.5290   53.3732 C.3     1  ZINC000432833246    0.1100
     23 N23        -9.5974    1.4645   52.2805 N.am    1  ZINC000432833246   -0.5900
     24 C24        -8.2526    1.7532   51.7763 C.3     1  ZINC000432833246    0.0800
     25 C25        -7.1067    1.7712   52.7899 C.3     1  ZINC000432833246   -0.1900
     26 C26        -7.2310    0.6144   51.7963 C.3     1  ZINC000432833246   -0.1900
     27 H27       -12.2767    2.2200   53.2832 H       1  ZINC000432833246    0.1100
     28 H28       -12.7227    1.2371   51.8533 H       1  ZINC000432833246    0.1000
     29 H29       -11.6178    0.8139   55.3199 H       1  ZINC000432833246    0.0800
     30 H30       -13.1107    0.2028   54.5675 H       1  ZINC000432833246    0.0700
     31 H31       -10.9748   -1.7651   54.8375 H       1  ZINC000432833246    0.4000
     32 H32       -10.7472   -0.1981   57.2284 H       1  ZINC000432833246    0.1300
     33 H33       -10.5253    0.2784   59.6098 H       1  ZINC000432833246    0.1400
     34 H34       -12.0347   -0.7649   61.2446 H       1  ZINC000432833246    0.1400
     35 H35       -16.5135   -3.8628   56.5031 H       1  ZINC000432833246    0.1300
     36 H36       -16.1037   -5.3203   54.4677 H       1  ZINC000432833246    0.1000
     37 H37       -14.2943   -4.9860   54.5926 H       1  ZINC000432833246    0.1000
     38 H38       -14.2653   -6.0104   56.9129 H       1  ZINC000432833246    0.0900
     39 H39       -16.0747   -6.3447   56.7879 H       1  ZINC000432833246    0.1000
     40 H40       -13.7448   -2.9652   54.7208 H       1  ZINC000432833246    0.1400
     41 H41        -9.6685    0.9882   54.3368 H       1  ZINC000432833246    0.0800
     42 H42        -9.3086   -0.3851   53.2486 H       1  ZINC000432833246    0.0900
     43 H43        -8.2028    2.4593   50.9474 H       1  ZINC000432833246    0.1300
     44 H44        -6.3029    2.4894   52.6283 H       1  ZINC000432833246    0.1000
     45 H45        -7.3535    1.5682   53.8321 H       1  ZINC000432833246    0.1300
     46 H46        -7.5595   -0.3496   52.1847 H       1  ZINC000432833246    0.0900
     47 H47        -6.5089    0.5717   50.9809 H       1  ZINC000432833246    0.1000
@<TRIPOS>BOND
     1     1     2    2
     2     2    23   am
     3     2     3    1
     4     3     4    1
     5     3    27    1
     6     3    28    1
     7     4     5    1
     8     4     6    1
     9     4    22    1
    10     6     7    1
    11     6    29    1
    12     6    30    1
    13     7     8    1
    14     7    31    1
    15     8    21   ar
    16     8     9   ar
    17     9    15   ar
    18     9    10   ar
    19    10    11   ar
    20    10    32    1
    21    11    12   ar
    22    11    33    1
    23    12    13   ar
    24    12    34    1
    25    13    14    1
    26    13    15   ar
    27    15    16   ar
    28    16    17   ar
    29    17    18    1
    30    17    21   ar
    31    18    20    1
    32    18    19    1
    33    18    35    1
    34    19    20    1
    35    19    36    1
    36    19    37    1
    37    20    38    1
    38    20    39    1
    39    21    40    1
    40    22    23    1
    41    22    41    1
    42    22    42    1
    43    23    24    1
    44    24    26    1
    45    24    25    1
    46    24    43    1
    47    25    26    1
    48    25    44    1
    49    25    45    1
    50    26    46    1
    51    26    47    1
@<TRIPOS>SUBSTRUCTURE
     1 ZINC000432833246        1 TEMP              0 ****  ****    0 ROOT


##########                                Name:    ZINC000433961694
##########                DOCK_Rotatable_Bonds:                   7
##########                         Heavy_Atoms:                  29
##########                    Molecular_Weight:             413.472
##########                DOCK_Rotatable_Bonds:                   7
##########                       Formal_Charge:          0.00999992
##########                     HBond_Acceptors:                   8
##########                        HBond_Donors:                   0
##########                         Heavy_Atoms:                  29
##########                          Grid_Score:          -28.538246
##########                     Grid_vdw_energy:          -27.907673
##########                      Grid_es_energy:           -0.630574
##########           Internal_energy_repulsive:           16.403294

@<TRIPOS>MOLECULE
ZINC000433961694
 49 52 1 0 0
SMALL
USER_CHARGES


@<TRIPOS>ATOM
      1 C1         -6.9401    2.1545   53.0425 C.3     1  ZINC000433961694   -0.1000
      2 C2         -7.0499    2.4786   54.5101 C.2     1  ZINC000433961694    0.1600
      3 C3         -6.1022    3.1779   55.1834 C.2     1  ZINC000433961694   -0.3000
      4 C4         -4.8595    3.7150   54.6188 C.2     1  ZINC000433961694    0.6200
      5 O5         -4.8860    4.3422   53.5764 O.2     1  ZINC000433961694   -0.5100
      6 N6         -3.6883    3.5138   55.2547 N.am    1  ZINC000433961694   -0.6100
      7 C7         -3.5126    2.7758   56.5188 C.3     1  ZINC000433961694    0.1100
      8 C8         -2.0395    2.2972   56.4971 C.3     1  ZINC000433961694   -0.1300
      9 C9         -1.3298    3.5035   55.8273 C.3     1  ZINC000433961694    0.0800
     10 H10        -1.1156    4.2808   56.5609 H       1  ZINC000433961694    0.1000
     11 O11        -0.1307    3.0848   55.1724 O.3     1  ZINC000433961694   -0.2900
     12 C12         0.9620    2.8893   55.9534 C.ar    1  ZINC000433961694    0.1700
     13 C13         0.9057    3.1074   57.3277 C.ar    1  ZINC000433961694   -0.2600
     14 C14         2.0383    2.8974   58.0871 C.ar    1  ZINC000433961694    0.1400
     15 N15         3.1632    2.4953   57.5267 N.ar    1  ZINC000433961694   -0.5100
     16 C16         3.2560    2.2778   56.2284 C.ar    1  ZINC000433961694    0.1400
     17 C17         2.1664    2.4597   55.4017 C.ar    1  ZINC000433961694   -0.2000
     18 C18        -2.3734    3.9885   54.7993 C.3     1  ZINC000433961694    0.0600
     19 S19        -6.6320    3.3257   56.8575 S.3     1  ZINC000433961694    0.2100
     20 C20        -8.0531    2.4472   56.4951 C.2     1  ZINC000433961694    0.0400
     21 C21        -9.1348    2.1131   57.4897 C.3     1  ZINC000433961694    0.1400
     22 O22        -9.0189    0.7425   57.8772 O.3     1  ZINC000433961694   -0.3000
     23 C23        -9.0657    0.4714   59.2085 C.ar    1  ZINC000433961694    0.1200
     24 C24        -8.0958   -0.3335   59.7876 C.ar    1  ZINC000433961694   -0.1800
     25 C25        -8.1447   -0.6081   61.1407 C.ar    1  ZINC000433961694   -0.1100
     26 C26        -9.1614   -0.0808   61.9185 C.ar    1  ZINC000433961694    0.0600
     27 F27        -9.2083   -0.3505   63.2415 F       1  ZINC000433961694   -0.1400
     28 C28       -10.1300    0.7232   61.3418 C.ar    1  ZINC000433961694   -0.1100
     29 C29       -10.0803    1.0041   59.9901 C.ar    1  ZINC000433961694   -0.1200
     30 N30        -8.0710    2.1144   55.2445 N.2     1  ZINC000433961694   -0.4500
     31 H31        -7.3932    2.9557   52.4585 H       1  ZINC000433961694    0.0800
     32 H32        -5.8894    2.0557   52.7698 H       1  ZINC000433961694    0.1000
     33 H33        -7.4582    1.2177   52.8375 H       1  ZINC000433961694    0.0800
     34 H34        -3.6849    3.4347   57.3698 H       1  ZINC000433961694    0.0800
     35 H35        -4.1885    1.9215   56.5564 H       1  ZINC000433961694    0.1000
     36 H36        -1.6660    2.1364   57.5084 H       1  ZINC000433961694    0.1000
     37 H37        -1.9303    1.3957   55.8941 H       1  ZINC000433961694    0.1000
     38 H38        -0.0118    3.4370   57.7925 H       1  ZINC000433961694    0.1400
     39 H39         2.0038    3.0646   59.1536 H       1  ZINC000433961694    0.1600
     40 H40         4.1951    1.9492   55.8085 H       1  ZINC000433961694    0.1700
     41 H41         2.2488    2.2798   54.3399 H       1  ZINC000433961694    0.1400
     42 H42        -2.1450    3.5762   53.8164 H       1  ZINC000433961694    0.0900
     43 H43        -2.3728    5.0777   54.7560 H       1  ZINC000433961694    0.0800
     44 H44        -9.0295    2.7492   58.3685 H       1  ZINC000433961694    0.0900
     45 H45       -10.1110    2.2807   57.0348 H       1  ZINC000433961694    0.1000
     46 H46        -7.3031   -0.7456   59.1810 H       1  ZINC000433961694    0.1400
     47 H47        -7.3896   -1.2348   61.5918 H       1  ZINC000433961694    0.1400
     48 H48       -10.9224    1.1342   61.9498 H       1  ZINC000433961694    0.1500
     49 H49       -10.8359    1.6313   59.5405 H       1  ZINC000433961694    0.1400
@<TRIPOS>BOND
     1     1     2    1
     2     1    31    1
     3     1    32    1
     4     1    33    1
     5     2    30    1
     6     2     3    2
     7     3     4    1
     8     3    19    1
     9     4     5    2
    10     4     6   am
    11     6    18    1
    12     6     7    1
    13     7     8    1
    14     7    34    1
    15     7    35    1
    16     8     9    1
    17     8    36    1
    18     8    37    1
    19     9    10    1
    20     9    11    1
    21     9    18    1
    22    11    12    1
    23    12    17   ar
    24    12    13   ar
    25    13    14   ar
    26    13    38    1
    27    14    15   ar
    28    14    39    1
    29    15    16   ar
    30    16    17   ar
    31    16    40    1
    32    17    41    1
    33    18    42    1
    34    18    43    1
    35    19    20    1
    36    20    21    1
    37    20    30    2
    38    21    22    1
    39    21    44    1
    40    21    45    1
    41    22    23    1
    42    23    29   ar
    43    23    24   ar
    44    24    25   ar
    45    24    46    1
    46    25    26   ar
    47    25    47    1
    48    26    27    1
    49    26    28   ar
    50    28    29   ar
    51    28    48    1
    52    29    49    1
@<TRIPOS>SUBSTRUCTURE
     1 ZINC000433961694        1 TEMP              0 ****  ****    0 ROOT


##########                                Name:    ZINC000474368324
##########                DOCK_Rotatable_Bonds:                   9
##########                         Heavy_Atoms:                  27
##########                    Molecular_Weight:             417.332
##########                DOCK_Rotatable_Bonds:                   9
##########                       Formal_Charge:        -1.63913e-07
##########                     HBond_Acceptors:                   8
##########                        HBond_Donors:                   1
##########                         Heavy_Atoms:                  27
##########                          Grid_Score:          -28.532831
##########                     Grid_vdw_energy:          -27.981697
##########                      Grid_es_energy:           -0.551135
##########           Internal_energy_repulsive:           23.269550

@<TRIPOS>MOLECULE
ZINC000474368324
 53 54 1 0 0
SMALL
USER_CHARGES


@<TRIPOS>ATOM
      1 C1        -13.1655    2.1790   64.4480 C.3     1  ZINC000474368324   -0.1500
      2 C2        -11.8301    1.4499   64.2865 C.3     1  ZINC000474368324    0.0600
      3 O3        -11.6302    1.1099   62.8891 O.3     1  ZINC000474368324   -0.3300
      4 C4        -10.4968    0.4627   62.5755 C.2     1  ZINC000474368324    0.4700
      5 O5         -9.6924    0.2004   63.4381 O.2     1  ZINC000474368324   -0.5100
      6 C6        -10.2277    0.0630   61.1476 C.3     1  ZINC000474368324   -0.0400
      7 C7        -10.8137   -1.3263   60.8880 C.3     1  ZINC000474368324    0.0600
      8 O8        -12.2353   -1.2768   61.0239 O.3     1  ZINC000474368324   -0.3700
      9 C9        -12.8820   -2.5361   60.8293 C.3     1  ZINC000474368324    0.0300
     10 C10       -10.8799    1.0756   60.2032 C.3     1  ZINC000474368324   -0.1200
     11 C11       -10.6337    0.6474   58.7531 C.3     1  ZINC000474368324    0.1100
     12 N12        -9.1889    0.4759   58.5493 N.am    1  ZINC000474368324   -0.6300
     13 C13        -8.5560    1.1161   57.5465 C.2     1  ZINC000474368324    0.7100
     14 O14        -7.3598    0.9659   57.3883 O.2     1  ZINC000474368324   -0.5800
     15 N15        -9.2490    1.9231   56.7187 N.am    1  ZINC000474368324   -0.7400
     16 C16        -8.5611    2.6191   55.6285 C.3     1  ZINC000474368324    0.2000
     17 H17        -7.5325    2.8279   55.9226 H       1  ZINC000474368324    0.1100
     18 C18        -9.2826    3.9343   55.3277 C.3     1  ZINC000474368324   -0.1600
     19 C19        -8.5650    1.7508   54.3967 C.ar    1  ZINC000474368324   -0.0700
     20 C20        -9.6048    0.8673   54.1774 C.ar    1  ZINC000474368324   -0.1000
     21 C21        -9.6094    0.0707   53.0472 C.ar    1  ZINC000474368324   -0.0900
     22 C22        -8.5742    0.1571   52.1358 C.ar    1  ZINC000474368324   -0.1000
     23 C23        -7.5324    1.0410   52.3537 C.ar    1  ZINC000474368324   -0.0300
     24 Cl24       -6.2319    1.1499   51.2091 Cl      1  ZINC000474368324   -0.0400
     25 C25        -7.5306    1.8424   53.4827 C.ar    1  ZINC000474368324   -0.0300
     26 Cl26       -6.2244    2.9526   53.7575 Cl      1  ZINC000474368324   -0.0400
     27 C27        -8.4468   -0.4066   59.4602 C.3     1  ZINC000474368324    0.1300
     28 C28        -8.7174    0.0334   60.9024 C.3     1  ZINC000474368324   -0.1200
     29 H29       -13.3156    2.4342   65.4970 H       1  ZINC000474368324    0.0800
     30 H30       -13.1564    3.0903   63.8501 H       1  ZINC000474368324    0.0700
     31 H31       -13.9757    1.5320   64.1119 H       1  ZINC000474368324    0.0700
     32 H32       -11.0199    2.0969   64.6226 H       1  ZINC000474368324    0.0700
     33 H33       -11.8392    0.5385   64.8844 H       1  ZINC000474368324    0.0700
     34 H34       -10.5561   -1.6464   59.8784 H       1  ZINC000474368324    0.0700
     35 H35       -10.4042   -2.0338   61.6091 H       1  ZINC000474368324    0.0600
     36 H36       -12.6675   -2.9034   59.8257 H       1  ZINC000474368324    0.0400
     37 H37       -12.5134   -3.2514   61.5645 H       1  ZINC000474368324    0.0400
     38 H38       -13.9585   -2.4141   60.9492 H       1  ZINC000474368324    0.0900
     39 H39       -11.9523    1.1132   60.3945 H       1  ZINC000474368324    0.1000
     40 H40       -10.4453    2.0611   60.3703 H       1  ZINC000474368324    0.0800
     41 H41       -11.1446   -0.2957   58.5588 H       1  ZINC000474368324    0.0800
     42 H42       -11.0095    1.4150   58.0766 H       1  ZINC000474368324    0.0800
     43 H43       -10.2033    2.0429   56.8449 H       1  ZINC000474368324    0.3900
     44 H44       -10.3112    3.7255   55.0336 H       1  ZINC000474368324    0.0600
     45 H45        -9.2799    4.5623   56.2186 H       1  ZINC000474368324    0.0700
     46 H46        -8.7708    4.4522   54.5165 H       1  ZINC000474368324    0.0700
     47 H47       -10.4141    0.7988   54.8892 H       1  ZINC000474368324    0.1300
     48 H48       -10.4223   -0.6197   52.8769 H       1  ZINC000474368324    0.1400
     49 H49        -8.5782   -0.4657   51.2533 H       1  ZINC000474368324    0.1500
     50 H50        -8.7794   -1.4356   59.3235 H       1  ZINC000474368324    0.0700
     51 H51        -7.3797   -0.3343   59.2503 H       1  ZINC000474368324    0.1100
     52 H52        -8.3032    1.0288   61.0628 H       1  ZINC000474368324    0.0900
     53 H53        -8.2507   -0.6707   61.5912 H       1  ZINC000474368324    0.0900
@<TRIPOS>BOND
     1     1     2    1
     2     1    29    1
     3     1    30    1
     4     1    31    1
     5     2     3    1
     6     2    32    1
     7     2    33    1
     8     3     4    1
     9     4     5    2
    10     4     6    1
    11     6    28    1
    12     6     7    1
    13     6    10    1
    14     7     8    1
    15     7    34    1
    16     7    35    1
    17     8     9    1
    18     9    36    1
    19     9    37    1
    20     9    38    1
    21    10    11    1
    22    10    39    1
    23    10    40    1
    24    11    12    1
    25    11    41    1
    26    11    42    1
    27    12    13   am
    28    12    27    1
    29    13    14    2
    30    13    15   am
    31    15    16    1
    32    15    43    1
    33    16    17    1
    34    16    18    1
    35    16    19    1
    36    18    44    1
    37    18    45    1
    38    18    46    1
    39    19    25   ar
    40    19    20   ar
    41    20    21   ar
    42    20    47    1
    43    21    22   ar
    44    21    48    1
    45    22    23   ar
    46    22    49    1
    47    23    24    1
    48    23    25   ar
    49    25    26    1
    50    27    28    1
    51    27    50    1
    52    27    51    1
    53    28    52    1
    54    28    53    1
@<TRIPOS>SUBSTRUCTURE
     1 ZINC000474368324        1 TEMP              0 ****  ****    0 ROOT


##########                                Name:    ZINC000863246516
##########                DOCK_Rotatable_Bonds:                   5
##########                         Heavy_Atoms:                  25
##########                    Molecular_Weight:             356.489
##########                DOCK_Rotatable_Bonds:                   5
##########                       Formal_Charge:         -0.00999938
##########                     HBond_Acceptors:                   5
##########                        HBond_Donors:                   0
##########                         Heavy_Atoms:                  25
##########                          Grid_Score:          -28.528389
##########                     Grid_vdw_energy:          -29.181610
##########                      Grid_es_energy:            0.653222
##########           Internal_energy_repulsive:           10.197633

@<TRIPOS>MOLECULE
ZINC000863246516
 49 52 1 0 0
SMALL
USER_CHARGES


@<TRIPOS>ATOM
      1 C1        -10.7698    0.8743   63.5935 C.3     1  ZINC000863246516   -0.0600
      2 C2        -10.2466    0.1533   62.3780 C.2     1  ZINC000863246516   -0.2000
      3 C3        -10.9535   -0.3544   61.3780 C.2     1  ZINC000863246516    0.0900
      4 C4        -12.4571   -0.2599   61.3448 C.3     1  ZINC000863246516   -0.1000
      5 N5        -10.2531   -0.9656   60.3811 N.am    1  ZINC000863246516   -0.5300
      6 C6        -10.9310   -1.5613   59.2270 C.3     1  ZINC000863246516    0.1200
      7 C7        -11.0078   -0.5348   58.0950 C.3     1  ZINC000863246516   -0.1500
      8 C8        -11.3677   -1.2320   56.8083 C.2     1  ZINC000863246516    0.5400
      9 O9        -11.9427   -2.2995   56.8373 O.2     1  ZINC000863246516   -0.5300
     10 N10       -11.0504   -0.6694   55.6254 N.am    1  ZINC000863246516   -0.6100
     11 C11       -11.3435   -1.2432   54.3071 C.3     1  ZINC000863246516    0.1100
     12 C12       -11.2342   -0.0925   53.2887 C.3     1  ZINC000863246516   -0.1300
     13 H13       -12.1830    0.3243   52.9511 H       1  ZINC000863246516    0.1000
     14 C14       -10.1740   -0.3458   52.2041 C.3     1  ZINC000863246516   -0.1200
     15 C15        -9.1164    0.0545   53.2453 C.3     1  ZINC000863246516   -0.0600
     16 H16        -8.7540   -0.7822   53.8425 H       1  ZINC000863246516    0.1000
     17 C17        -8.0008    0.8948   52.6790 C.ar    1  ZINC000863246516   -0.0700
     18 C18        -7.2979    0.4557   51.5727 C.ar    1  ZINC000863246516   -0.1200
     19 C19        -6.2747    1.2265   51.0533 C.ar    1  ZINC000863246516   -0.1200
     20 C20        -5.9546    2.4365   51.6400 C.ar    1  ZINC000863246516   -0.1200
     21 C21        -6.6582    2.8761   52.7457 C.ar    1  ZINC000863246516   -0.1200
     22 C22        -7.6843    2.1073   53.2625 C.ar    1  ZINC000863246516   -0.1200
     23 C23       -10.2287    0.8841   53.9482 C.3     1  ZINC000863246516   -0.1100
     24 H24       -10.2979    1.9313   53.6539 H       1  ZINC000863246516    0.1200
     25 C25       -10.3639    0.6152   55.4543 C.3     1  ZINC000863246516    0.1200
     26 C26        -8.9164   -0.9987   60.5003 C.2     1  ZINC000863246516    0.4800
     27 O27        -8.1219   -1.4949   59.7214 O.2     1  ZINC000863246516   -0.4700
     28 S28        -8.5548   -0.1899   61.9770 S.3     1  ZINC000863246516    0.0100
     29 H29        -9.9342    1.1726   64.2267 H       1  ZINC000863246516    0.0700
     30 H30       -11.3228    1.7600   63.2806 H       1  ZINC000863246516    0.0800
     31 H31       -11.4308    0.2119   64.1524 H       1  ZINC000863246516    0.0800
     32 H32       -12.8079    0.2645   62.2337 H       1  ZINC000863246516    0.0900
     33 H33       -12.7673    0.2868   60.4544 H       1  ZINC000863246516    0.0800
     34 H34       -12.8838   -1.2627   61.3225 H       1  ZINC000863246516    0.0800
     35 H35       -10.3729   -2.4343   58.8886 H       1  ZINC000863246516    0.1000
     36 H36       -11.9386   -1.8626   59.5132 H       1  ZINC000863246516    0.1000
     37 H37       -11.7689    0.2092   58.3302 H       1  ZINC000863246516    0.1000
     38 H38       -10.0412   -0.0434   57.9840 H       1  ZINC000863246516    0.1000
     39 H39       -10.6183   -2.0216   54.0695 H       1  ZINC000863246516    0.0700
     40 H40       -12.3521   -1.6565   54.2960 H       1  ZINC000863246516    0.0800
     41 H41       -10.1077   -1.3887   51.8943 H       1  ZINC000863246516    0.0800
     42 H42       -10.2389    0.3430   51.3618 H       1  ZINC000863246516    0.0900
     43 H43        -7.5479   -0.4897   51.1143 H       1  ZINC000863246516    0.1200
     44 H44        -5.7250    0.8830   50.1894 H       1  ZINC000863246516    0.1200
     45 H45        -5.1547    3.0384   51.2346 H       1  ZINC000863246516    0.1200
     46 H46        -6.4079    3.8213   53.2043 H       1  ZINC000863246516    0.1200
     47 H47        -8.2339    2.4507   54.1265 H       1  ZINC000863246516    0.1200
     48 H48       -10.9325    1.4186   55.9226 H       1  ZINC000863246516    0.0700
     49 H49        -9.3746    0.5510   55.9075 H       1  ZINC000863246516    0.0700
@<TRIPOS>BOND
     1     1     2    1
     2     1    29    1
     3     1    30    1
     4     1    31    1
     5     2    28    1
     6     2     3    2
     7     3     4    1
     8     3     5    1
     9     4    32    1
    10     4    33    1
    11     4    34    1
    12     5     6    1
    13     5    26   am
    14     6     7    1
    15     6    35    1
    16     6    36    1
    17     7     8    1
    18     7    37    1
    19     7    38    1
    20     8     9    2
    21     8    10   am
    22    10    25    1
    23    10    11    1
    24    11    12    1
    25    11    39    1
    26    11    40    1
    27    12    13    1
    28    12    23    1
    29    12    14    1
    30    14    15    1
    31    14    41    1
    32    14    42    1
    33    15    16    1
    34    15    17    1
    35    15    23    1
    36    17    22   ar
    37    17    18   ar
    38    18    19   ar
    39    18    43    1
    40    19    20   ar
    41    19    44    1
    42    20    21   ar
    43    20    45    1
    44    21    22   ar
    45    21    46    1
    46    22    47    1
    47    23    24    1
    48    23    25    1
    49    25    48    1
    50    25    49    1
    51    26    27    2
    52    26    28    1
@<TRIPOS>SUBSTRUCTURE
     1 ZINC000863246516        1 TEMP              0 ****  ****    0 ROOT


##########                                Name:    ZINC001220171460
##########                DOCK_Rotatable_Bonds:                  10
##########                         Heavy_Atoms:                  25
##########                    Molecular_Weight:             383.773
##########                DOCK_Rotatable_Bonds:                  10
##########                       Formal_Charge:           0.0199996
##########                     HBond_Acceptors:                  10
##########                        HBond_Donors:                   3
##########                         Heavy_Atoms:                  25
##########                          Grid_Score:          -28.517908
##########                     Grid_vdw_energy:          -28.089098
##########                      Grid_es_energy:           -0.428809
##########           Internal_energy_repulsive:            8.076023

@<TRIPOS>MOLECULE
ZINC001220171460
 43 44 1 0 0
SMALL
USER_CHARGES


@<TRIPOS>ATOM
      1 C1         -8.5236    4.9152   50.6035 C.3     1  ZINC001220171460    0.0200
      2 O2         -8.4152    4.2816   51.8797 O.3     1  ZINC001220171460   -0.3100
      3 C3         -8.7760    2.9719   51.9514 C.ar    1  ZINC001220171460    0.1000
      4 C4        -10.0822    2.5968   51.6858 C.ar    1  ZINC001220171460   -0.1500
      5 C5        -10.4486    1.2644   51.7589 C.ar    1  ZINC001220171460   -0.0600
      6 Cl6       -12.0867    0.7966   51.4247 Cl      1  ZINC001220171460   -0.0400
      7 C7         -9.5106    0.3030   52.0979 C.ar    1  ZINC001220171460    0.1000
      8 F8         -9.8721   -0.9968   52.1678 F       1  ZINC001220171460   -0.1200
      9 C9         -8.2035    0.6721   52.3645 C.ar    1  ZINC001220171460   -0.1200
     10 C10        -7.8305    2.0055   52.2868 C.ar    1  ZINC001220171460    0.1800
     11 N11        -6.5070    2.3814   52.5565 N.am    1  ZINC001220171460   -0.6700
     12 C12        -5.5748    2.3093   51.5858 C.2     1  ZINC001220171460    0.7100
     13 O13        -5.8816    1.9182   50.4762 O.2     1  ZINC001220171460   -0.5700
     14 N14        -4.3025    2.6707   51.8451 N.am    1  ZINC001220171460   -0.7400
     15 C15        -3.2889    2.5907   50.7904 C.3     1  ZINC001220171460    0.1400
     16 C16        -2.1854    3.6144   51.0648 C.3     1  ZINC001220171460   -0.1400
     17 C17        -0.8849    3.1517   50.4049 C.3     1  ZINC001220171460    0.0500
     18 H18        -0.8371    2.0628   50.4203 H       1  ZINC001220171460    0.1000
     19 N19        -0.8464    3.6238   49.0144 N.3     1  ZINC001220171460   -0.6500
     20 C20        -1.2702    2.5661   48.0873 C.3     1  ZINC001220171460    0.0100
     21 C21        -0.3768    2.2880   46.8767 C.3     1  ZINC001220171460   -0.2000
     22 C22        -0.4259    1.2912   48.0364 C.3     1  ZINC001220171460   -0.1600
     23 C23         0.3083    3.7254   51.1716 C.3     1  ZINC001220171460    0.4600
     24 F24         0.2808    3.2626   52.4914 F       1  ZINC001220171460   -0.1800
     25 F25         1.4972    3.3158   50.5585 F       1  ZINC001220171460   -0.1800
     26 F26         0.2380    5.1227   51.1659 F       1  ZINC001220171460   -0.1700
     27 H27        -7.8884    4.3967   49.8853 H       1  ZINC001220171460    0.0600
     28 H28        -9.5593    4.8778   50.2659 H       1  ZINC001220171460    0.0600
     29 H29        -8.2056    5.9546   50.6857 H       1  ZINC001220171460    0.1100
     30 H30       -10.8155    3.3445   51.4216 H       1  ZINC001220171460    0.1500
     31 H31        -7.4734   -0.0785   52.6289 H       1  ZINC001220171460    0.1800
     32 H32        -6.2622    2.6934   53.4418 H       1  ZINC001220171460    0.4200
     33 H33        -4.0580    2.9839   52.7300 H       1  ZINC001220171460    0.4000
     34 H34        -2.8594    1.5890   50.7745 H       1  ZINC001220171460    0.0800
     35 H35        -3.7503    2.8035   49.8261 H       1  ZINC001220171460    0.0700
     36 H36        -2.4768    4.5813   50.6548 H       1  ZINC001220171460    0.1000
     37 H37        -2.0344    3.7063   52.1404 H       1  ZINC001220171460    0.1000
     38 H38        -1.4093    4.4531   48.8984 H       1  ZINC001220171460    0.3600
     39 H39        -2.3470    2.4623   47.9529 H       1  ZINC001220171460    0.1200
     40 H40        -0.8657    2.0013   45.9457 H       1  ZINC001220171460    0.1000
     41 H41         0.5255    2.8899   46.7683 H       1  ZINC001220171460    0.1000
     42 H42         0.4441    1.2373   48.6909 H       1  ZINC001220171460    0.1000
     43 H43        -0.9471    0.3488   47.8683 H       1  ZINC001220171460    0.1000
@<TRIPOS>BOND
     1     1     2    1
     2     1    27    1
     3     1    28    1
     4     1    29    1
     5     2     3    1
     6     3    10   ar
     7     3     4   ar
     8     4     5   ar
     9     4    30    1
    10     5     6    1
    11     5     7   ar
    12     7     8    1
    13     7     9   ar
    14     9    10   ar
    15     9    31    1
    16    10    11    1
    17    11    12   am
    18    11    32    1
    19    12    13    2
    20    12    14   am
    21    14    15    1
    22    14    33    1
    23    15    16    1
    24    15    34    1
    25    15    35    1
    26    16    17    1
    27    16    36    1
    28    16    37    1
    29    17    18    1
    30    17    19    1
    31    17    23    1
    32    19    20    1
    33    19    38    1
    34    20    22    1
    35    20    21    1
    36    20    39    1
    37    21    22    1
    38    21    40    1
    39    21    41    1
    40    22    42    1
    41    22    43    1
    42    23    24    1
    43    23    25    1
    44    23    26    1
@<TRIPOS>SUBSTRUCTURE
     1 ZINC001220171460        1 TEMP              0 ****  ****    0 ROOT


##########                                Name:    ZINC001271977984
##########                DOCK_Rotatable_Bonds:                   7
##########                         Heavy_Atoms:                  24
##########                    Molecular_Weight:             328.371
##########                DOCK_Rotatable_Bonds:                   7
##########                       Formal_Charge:           0.0200001
##########                     HBond_Acceptors:                   7
##########                        HBond_Donors:                   0
##########                         Heavy_Atoms:                  24
##########                          Grid_Score:          -28.511925
##########                     Grid_vdw_energy:          -27.694643
##########                      Grid_es_energy:           -0.817282
##########           Internal_energy_repulsive:           82.340935

@<TRIPOS>MOLECULE
ZINC001271977984
 44 46 1 0 0
SMALL
USER_CHARGES


@<TRIPOS>ATOM
      1 C1          0.3874    3.4819   48.1022 C.3     1  ZINC001271977984   -0.1800
      2 C2          0.1220    2.4731   49.2216 C.3     1  ZINC001271977984    0.1700
      3 H3          0.9401    2.5053   49.9411 H       1  ZINC001271977984    0.1100
      4 C4         -1.1704    2.8202   49.9145 C.2     1  ZINC001271977984    0.2700
      5 N5         -1.3752    3.9010   50.6056 N.2     1  ZINC001271977984   -0.4700
      6 C6         -2.6491    3.8813   51.0831 C.ar    1  ZINC001271977984    0.0200
      7 C7         -3.4002    4.7571   51.8681 C.ar    1  ZINC001271977984   -0.0600
      8 C8         -4.7018    4.4415   52.1889 C.ar    1  ZINC001271977984   -0.1200
      9 C9         -5.2697    3.2598   51.7370 C.ar    1  ZINC001271977984   -0.0900
     10 C10        -4.5389    2.3845   50.9606 C.ar    1  ZINC001271977984   -0.0900
     11 C11        -3.2275    2.6863   50.6277 C.ar    1  ZINC001271977984    0.0100
     12 O12        -2.2763    2.0595   49.9011 O.3     1  ZINC001271977984   -0.2100
     13 N13         0.0245    1.1229   48.6510 N.3     1  ZINC001271977984   -0.5300
     14 C14        -0.5821    1.1591   47.3136 C.3     1  ZINC001271977984    0.0000
     15 C15         1.3400    0.4704   48.6149 C.3     1  ZINC001271977984    0.0400
     16 C16         1.7354    0.0412   50.0293 C.3     1  ZINC001271977984    0.1200
     17 N17         2.8317   -0.9281   49.9570 N.am    1  ZINC001271977984   -0.6000
     18 C18         2.5385   -2.3556   49.8071 C.3     1  ZINC001271977984    0.0800
     19 C19         4.1097   -0.5064   50.0285 C.2     1  ZINC001271977984    0.6000
     20 O20         5.0196   -1.3110   49.9685 O.2     1  ZINC001271977984   -0.5300
     21 C21         4.4047    0.9300   50.1794 C.2     1  ZINC001271977984   -0.0800
     22 C22         5.6389    1.4981   50.2576 C.2     1  ZINC001271977984    0.0200
     23 O23         5.4531    2.8213   50.3883 O.3     1  ZINC001271977984   -0.2000
     24 C24         4.1342    3.0613   50.3903 C.2     1  ZINC001271977984    0.1800
     25 N25         3.4943    1.9380   50.2608 N.2     1  ZINC001271977984   -0.4600
     26 H26         1.3221    3.2308   47.6009 H       1  ZINC001271977984    0.0800
     27 H27        -0.4308    3.4497   47.3827 H       1  ZINC001271977984    0.0800
     28 H28         0.4598    4.4837   48.5255 H       1  ZINC001271977984    0.0700
     29 H29        -2.9625    5.6785   52.2228 H       1  ZINC001271977984    0.1400
     30 H30        -5.2839    5.1185   52.7967 H       1  ZINC001271977984    0.1400
     31 H31        -6.2914    3.0230   51.9950 H       1  ZINC001271977984    0.1400
     32 H32        -4.9878    1.4660   50.6123 H       1  ZINC001271977984    0.1400
     33 H33         0.0298    1.7741   46.6536 H       1  ZINC001271977984    0.0300
     34 H34        -0.6423    0.1467   46.9145 H       1  ZINC001271977984    0.0700
     35 H35        -1.5839    1.5836   47.3803 H       1  ZINC001271977984    0.1100
     36 H36         1.2931   -0.4064   47.9689 H       1  ZINC001271977984    0.0500
     37 H37         2.0815    1.1686   48.2265 H       1  ZINC001271977984    0.0800
     38 H38         2.0587    0.9138   50.5967 H       1  ZINC001271977984    0.0900
     39 H39         0.8781   -0.4163   50.5231 H       1  ZINC001271977984    0.0900
     40 H40         2.5809   -2.6264   48.7521 H       1  ZINC001271977984    0.0600
     41 H41         3.2745   -2.9378   50.3615 H       1  ZINC001271977984    0.0900
     42 H42         1.5419   -2.5647   50.1961 H       1  ZINC001271977984    0.0700
     43 H43         6.5872    0.9827   50.2218 H       1  ZINC001271977984    0.2300
     44 H44         3.6760    4.0351   50.4816 H       1  ZINC001271977984    0.2600
@<TRIPOS>BOND
     1     1     2    1
     2     1    26    1
     3     1    27    1
     4     1    28    1
     5     2     3    1
     6     2     4    1
     7     2    13    1
     8     4    12    1
     9     4     5    2
    10     5     6    1
    11     6    11   ar
    12     6     7   ar
    13     7     8   ar
    14     7    29    1
    15     8     9   ar
    16     8    30    1
    17     9    10   ar
    18     9    31    1
    19    10    11   ar
    20    10    32    1
    21    11    12    1
    22    13    14    1
    23    13    15    1
    24    14    33    1
    25    14    34    1
    26    14    35    1
    27    15    16    1
    28    15    36    1
    29    15    37    1
    30    16    17    1
    31    16    38    1
    32    16    39    1
    33    17    18    1
    34    17    19   am
    35    18    40    1
    36    18    41    1
    37    18    42    1
    38    19    20    2
    39    19    21    1
    40    21    25    1
    41    21    22    2
    42    22    23    1
    43    22    43    1
    44    23    24    1
    45    24    25    2
    46    24    44    1
@<TRIPOS>SUBSTRUCTURE
     1 ZINC001271977984        1 TEMP              0 ****  ****    0 ROOT


##########                                Name:    ZINC001707162141
##########                DOCK_Rotatable_Bonds:                   9
##########                         Heavy_Atoms:                  25
##########                    Molecular_Weight:               344.5
##########                DOCK_Rotatable_Bonds:                   9
##########                       Formal_Charge:          -0.0299999
##########                     HBond_Acceptors:                   5
##########                        HBond_Donors:                   1
##########                         Heavy_Atoms:                  25
##########                          Grid_Score:          -28.503336
##########                     Grid_vdw_energy:          -28.261827
##########                      Grid_es_energy:           -0.241508
##########           Internal_energy_repulsive:           83.610382

@<TRIPOS>MOLECULE
ZINC001707162141
 57 59 1 0 0
SMALL
USER_CHARGES


@<TRIPOS>ATOM
      1 C1        -15.5731   -3.2239   59.1700 C.3     1  ZINC001707162141   -0.1800
      2 C2        -14.7841   -2.9533   57.8874 C.3     1  ZINC001707162141    0.1700
      3 H3        -15.0787   -1.9876   57.4765 H       1  ZINC001707162141    0.1000
      4 N4        -13.3467   -2.9384   58.1904 N.3     1  ZINC001707162141   -0.6400
      5 C5        -12.6015   -2.1879   57.1709 C.3     1  ZINC001707162141    0.0700
      6 C6        -11.5807   -1.2756   57.8539 C.3     1  ZINC001707162141    0.1500
      7 H7        -10.8184   -1.8819   58.3432 H       1  ZINC001707162141    0.0700
      8 C8        -12.2887   -0.3994   58.8921 C.3     1  ZINC001707162141   -0.1200
      9 C9        -11.2906    0.6054   59.4716 C.3     1  ZINC001707162141   -0.0900
     10 H10       -10.4572    0.0688   59.9253 H       1  ZINC001707162141    0.0700
     11 C11       -11.9856    1.4595   60.5340 C.3     1  ZINC001707162141   -0.1500
     12 C12       -10.7666    1.5094   58.3535 C.3     1  ZINC001707162141   -0.1300
     13 C13       -10.0413    0.6549   57.3092 C.3     1  ZINC001707162141    0.1100
     14 N14       -10.9498   -0.4055   56.8521 N.am    1  ZINC001707162141   -0.6100
     15 C15       -11.2001   -0.5765   55.5388 C.2     1  ZINC001707162141    0.5100
     16 O16       -11.9520   -1.4555   55.1742 O.2     1  ZINC001707162141   -0.4800
     17 C17       -10.5457    0.3246   54.5235 C.3     1  ZINC001707162141   -0.1400
     18 C18       -10.6531   -0.3091   53.1350 C.3     1  ZINC001707162141   -0.0900
     19 C19        -9.7864    0.4754   52.1479 C.3     1  ZINC001707162141   -0.0900
     20 C20        -8.3240    0.4150   52.5935 C.3     1  ZINC001707162141   -0.1500
     21 C21        -7.6842    1.7111   53.0956 C.3     1  ZINC001707162141   -0.1800
     22 C22        -7.2917    1.1431   51.7302 C.3     1  ZINC001707162141   -0.1800
     23 C23       -15.0741   -4.0370   56.8810 C.ar    1  ZINC001707162141    0.3500
     24 N24       -14.9852   -3.7593   55.5958 N.ar    1  ZINC001707162141   -0.5000
     25 C25       -15.2271   -4.6868   54.6835 C.ar    1  ZINC001707162141    0.1500
     26 C26       -15.5887   -5.9597   55.0956 C.ar    1  ZINC001707162141   -0.2400
     27 C27       -15.6772   -6.2120   56.4557 C.ar    1  ZINC001707162141    0.1500
     28 N28       -15.4152   -5.2357   57.3097 N.ar    1  ZINC001707162141   -0.5200
     29 H29       -15.3632   -2.4402   59.8978 H       1  ZINC001707162141    0.0600
     30 H30       -16.6394   -3.2350   58.9450 H       1  ZINC001707162141    0.0600
     31 H31       -15.2783   -4.1896   59.5808 H       1  ZINC001707162141    0.0600
     32 H32       -13.1753   -2.5647   59.1118 H       1  ZINC001707162141    0.3300
     33 H33       -12.0827   -2.8854   56.5132 H       1  ZINC001707162141    0.1000
     34 H34       -13.2945   -1.5837   56.5856 H       1  ZINC001707162141    0.0200
     35 H35       -13.1100    0.1366   58.4164 H       1  ZINC001707162141    0.0700
     36 H36       -12.6791   -1.0276   59.6928 H       1  ZINC001707162141    0.0700
     37 H37       -12.8186    1.9966   60.0804 H       1  ZINC001707162141    0.0500
     38 H38       -12.3588    0.8158   61.3305 H       1  ZINC001707162141    0.0600
     39 H39       -11.2744    2.1744   60.9477 H       1  ZINC001707162141    0.0600
     40 H40       -10.0736    2.2399   58.7708 H       1  ZINC001707162141    0.0700
     41 H41       -11.6022    2.0275   57.8829 H       1  ZINC001707162141    0.0700
     42 H42        -9.1532    0.2079   57.7557 H       1  ZINC001707162141    0.0600
     43 H43        -9.7528    1.2787   56.4631 H       1  ZINC001707162141    0.0800
     44 H44       -11.0464    1.2927   54.5207 H       1  ZINC001707162141    0.0800
     45 H45        -9.4952    0.4595   54.7810 H       1  ZINC001707162141    0.0800
     46 H46       -10.3086   -1.3423   53.1795 H       1  ZINC001707162141    0.0700
     47 H47       -11.6916   -0.2862   52.8045 H       1  ZINC001707162141    0.0700
     48 H48        -9.8817    0.0386   51.1539 H       1  ZINC001707162141    0.0600
     49 H49       -10.1155    1.5142   52.1214 H       1  ZINC001707162141    0.0600
     50 H50        -8.0154   -0.5160   53.0690 H       1  ZINC001707162141    0.1000
     51 H51        -8.3053    2.6067   53.1085 H       1  ZINC001707162141    0.0900
     52 H52        -6.9548    1.6328   53.9017 H       1  ZINC001707162141    0.0900
     53 H53        -6.3041    0.6913   51.6380 H       1  ZINC001707162141    0.0900
     54 H54        -7.6546    1.6652   50.8448 H       1  ZINC001707162141    0.0900
     55 H55       -15.1485   -4.4538   53.6319 H       1  ZINC001707162141    0.1600
     56 H56       -15.7963   -6.7364   54.3745 H       1  ZINC001707162141    0.1400
     57 H57       -15.9564   -7.1920   56.8134 H       1  ZINC001707162141    0.1600
@<TRIPOS>BOND
     1     1     2    1
     2     1    29    1
     3     1    30    1
     4     1    31    1
     5     2     3    1
     6     2     4    1
     7     2    23    1
     8     4     5    1
     9     4    32    1
    10     5     6    1
    11     5    33    1
    12     5    34    1
    13     6     7    1
    14     6    14    1
    15     6     8    1
    16     8     9    1
    17     8    35    1
    18     8    36    1
    19     9    10    1
    20     9    11    1
    21     9    12    1
    22    11    37    1
    23    11    38    1
    24    11    39    1
    25    12    13    1
    26    12    40    1
    27    12    41    1
    28    13    14    1
    29    13    42    1
    30    13    43    1
    31    14    15   am
    32    15    16    2
    33    15    17    1
    34    17    18    1
    35    17    44    1
    36    17    45    1
    37    18    19    1
    38    18    46    1
    39    18    47    1
    40    19    20    1
    41    19    48    1
    42    19    49    1
    43    20    22    1
    44    20    21    1
    45    20    50    1
    46    21    22    1
    47    21    51    1
    48    21    52    1
    49    22    53    1
    50    22    54    1
    51    23    28   ar
    52    23    24   ar
    53    24    25   ar
    54    25    26   ar
    55    25    55    1
    56    26    27   ar
    57    26    56    1
    58    27    28   ar
    59    27    57    1
@<TRIPOS>SUBSTRUCTURE
     1 ZINC001707162141        1 TEMP              0 ****  ****    0 ROOT


##########                                Name:    ZINC001570985666
##########                DOCK_Rotatable_Bonds:                   7
##########                         Heavy_Atoms:                  26
##########                    Molecular_Weight:             357.415
##########                DOCK_Rotatable_Bonds:                   7
##########                       Formal_Charge:          -0.0100001
##########                     HBond_Acceptors:                   9
##########                        HBond_Donors:                   3
##########                         Heavy_Atoms:                  26
##########                          Grid_Score:          -28.501625
##########                     Grid_vdw_energy:          -26.354689
##########                      Grid_es_energy:           -2.146937
##########           Internal_energy_repulsive:           10.079715

@<TRIPOS>MOLECULE
ZINC001570985666
 49 52 1 0 0
SMALL
USER_CHARGES


@<TRIPOS>ATOM
      1 C1         -8.5398    3.1025   55.4799 C.3     1  ZINC001570985666   -0.1600
      2 C2         -8.2291    1.8269   54.6941 C.3     1  ZINC001570985666    0.1300
      3 H3         -7.3596    1.3296   55.1238 H       1  ZINC001570985666    0.0800
      4 C4         -7.9575    2.1746   53.2152 C.3     1  ZINC001570985666    0.1400
      5 H5         -8.4236    3.1237   52.9504 H       1  ZINC001570985666    0.1100
      6 N6         -6.5176    2.2141   52.9482 N.am    1  ZINC001570985666   -0.7200
      7 C7         -6.0679    2.5756   51.7302 C.2     1  ZINC001570985666    0.6000
      8 O8         -6.8574    2.8678   50.8525 O.2     1  ZINC001570985666   -0.5300
      9 C9         -4.6199    2.6171   51.4622 C.2     1  ZINC001570985666   -0.2300
     10 C10        -3.6122    2.6473   52.4019 C.2     1  ZINC001570985666    0.0700
     11 N11        -2.4310    2.6797   51.7534 N.pl3   1  ZINC001570985666   -0.5200
     12 C12        -2.6574    2.6710   50.3991 C.2     1  ZINC001570985666    0.0600
     13 C13        -1.6158    2.6987   49.3480 C.2     1  ZINC001570985666    0.2500
     14 N14        -1.8043    2.5752   48.0477 N.2     1  ZINC001570985666   -0.3100
     15 N15        -0.6529    2.6526   47.4737 N.pl3   1  ZINC001570985666   -0.2200
     16 N16         0.2585    2.8210   48.3669 N.2     1  ZINC001570985666   -0.0400
     17 N17        -0.2963    2.8601   49.5305 N.2     1  ZINC001570985666   -0.2600
     18 C18        -3.9970    2.6271   50.1872 C.2     1  ZINC001570985666   -0.0600
     19 C19        -8.6292    1.0016   52.4535 C.3     1  ZINC001570985666   -0.1500
     20 C20        -9.8649    0.7195   53.3440 C.3     1  ZINC001570985666    0.1000
     21 N21        -9.3889    0.9240   54.7277 N.am    1  ZINC001570985666   -0.6200
     22 C22        -9.9298    0.3754   55.8336 C.2     1  ZINC001570985666    0.5300
     23 O23        -9.4551    0.6150   56.9236 O.2     1  ZINC001570985666   -0.5300
     24 C24       -11.1246   -0.5354   55.7156 C.3     1  ZINC001570985666   -0.1300
     25 C25       -11.9553   -0.4555   56.9980 C.3     1  ZINC001570985666   -0.1000
     26 C26       -12.6045    0.9197   57.2267 C.3     1  ZINC001570985666   -0.1300
     27 C27       -13.8509    0.1625   57.7149 C.3     1  ZINC001570985666   -0.1400
     28 C28       -13.3796   -1.0150   56.8452 C.3     1  ZINC001570985666   -0.1400
     29 H29        -8.7360    2.8487   56.5217 H       1  ZINC001570985666    0.0700
     30 H30        -7.6874    3.7796   55.4252 H       1  ZINC001570985666    0.0700
     31 H31        -9.4174    3.5877   55.0527 H       1  ZINC001570985666    0.0600
     32 H32        -5.8879    1.9800   53.6479 H       1  ZINC001570985666    0.4000
     33 H33        -3.7460    2.6459   53.4736 H       1  ZINC001570985666    0.1800
     34 H34        -1.5588    2.7055   52.1767 H       1  ZINC001570985666    0.4300
     35 H35        -0.4975    2.5930   46.5181 H       1  ZINC001570985666    0.4800
     36 H36        -4.4951    2.6100   49.2291 H       1  ZINC001570985666    0.1600
     37 H37        -8.9310    1.3081   51.4520 H       1  ZINC001570985666    0.0900
     38 H38        -7.9705    0.1340   52.4130 H       1  ZINC001570985666    0.0800
     39 H39       -10.6681    1.4184   53.1107 H       1  ZINC001570985666    0.0800
     40 H40       -10.2034   -0.3077   53.2087 H       1  ZINC001570985666    0.0800
     41 H41       -11.7351   -0.2260   54.8674 H       1  ZINC001570985666    0.0900
     42 H42       -10.7863   -1.5606   55.5653 H       1  ZINC001570985666    0.0900
     43 H43       -11.4262   -0.8405   57.8698 H       1  ZINC001570985666    0.1000
     44 H44       -12.1184    1.5080   58.0049 H       1  ZINC001570985666    0.0700
     45 H45       -12.7681    1.4834   56.3082 H       1  ZINC001570985666    0.0800
     46 H46       -13.8405   -0.0523   58.7834 H       1  ZINC001570985666    0.0800
     47 H47       -14.7893    0.6045   57.3800 H       1  ZINC001570985666    0.0700
     48 H48       -13.7550   -0.9801   55.8224 H       1  ZINC001570985666    0.0800
     49 H49       -13.5192   -1.9883   57.3154 H       1  ZINC001570985666    0.0700
@<TRIPOS>BOND
     1     1     2    1
     2     1    29    1
     3     1    30    1
     4     1    31    1
     5     2     3    1
     6     2    21    1
     7     2     4    1
     8     4     5    1
     9     4     6    1
    10     4    19    1
    11     6     7   am
    12     6    32    1
    13     7     8    2
    14     7     9    1
    15     9    18    1
    16     9    10    2
    17    10    11    1
    18    10    33    1
    19    11    12    1
    20    11    34    1
    21    12    13    1
    22    12    18    2
    23    13    17    1
    24    13    14    2
    25    14    15    1
    26    15    16    1
    27    15    35    1
    28    16    17    2
    29    18    36    1
    30    19    20    1
    31    19    37    1
    32    19    38    1
    33    20    21    1
    34    20    39    1
    35    20    40    1
    36    21    22   am
    37    22    23    2
    38    22    24    1
    39    24    25    1
    40    24    41    1
    41    24    42    1
    42    25    28    1
    43    25    26    1
    44    25    43    1
    45    26    27    1
    46    26    44    1
    47    26    45    1
    48    27    28    1
    49    27    46    1
    50    27    47    1
    51    28    48    1
    52    28    49    1
@<TRIPOS>SUBSTRUCTURE
     1 ZINC001570985666        1 TEMP              0 ****  ****    0 ROOT


##########                                Name:    ZINC000432253027
##########                DOCK_Rotatable_Bonds:                   8
##########                         Heavy_Atoms:                  26
##########                    Molecular_Weight:             401.436
##########                DOCK_Rotatable_Bonds:                   8
##########                       Formal_Charge:         1.19209e-07
##########                     HBond_Acceptors:                  11
##########                        HBond_Donors:                   0
##########                         Heavy_Atoms:                  26
##########                          Grid_Score:          -28.401930
##########                     Grid_vdw_energy:          -27.076122
##########                      Grid_es_energy:           -1.325807
##########           Internal_energy_repulsive:            7.335706

@<TRIPOS>MOLECULE
ZINC000432253027
 40 42 1 0 0
SMALL
USER_CHARGES


@<TRIPOS>ATOM
      1 C1         -9.4712   -1.8018   59.5072 C.3     1  ZINC000432253027    0.0300
      2 O2         -8.3464   -0.9286   59.6285 O.3     1  ZINC000432253027   -0.3100
      3 C3         -8.5199    0.2020   60.3607 C.ar    1  ZINC000432253027    0.1500
      4 C4         -8.6421    0.1263   61.7385 C.ar    1  ZINC000432253027   -0.2100
      5 C5         -8.8190    1.2777   62.4827 C.ar    1  ZINC000432253027   -0.0600
      6 C6         -8.8750    2.5118   61.8590 C.ar    1  ZINC000432253027   -0.1600
      7 C7         -8.7548    2.6039   60.4875 C.ar    1  ZINC000432253027   -0.0300
      8 C8         -8.5701    1.4497   59.7264 C.ar    1  ZINC000432253027   -0.0600
      9 C9         -8.4408    1.5415   58.2572 C.2     1  ZINC000432253027    0.1200
     10 N10        -7.3804    1.9417   57.6153 N.2     1  ZINC000432253027   -0.4600
     11 C11        -7.4475    1.9574   56.3034 C.2     1  ZINC000432253027    0.0800
     12 C12        -6.2881    2.3990   55.4480 C.3     1  ZINC000432253027   -0.0200
     13 S13        -6.4528    4.1658   55.0714 S.3     1  ZINC000432253027   -0.1700
     14 C14        -4.9868    4.5056   54.0585 C.3     1  ZINC000432253027   -0.0300
     15 C15        -5.0760    3.7300   52.7695 C.2     1  ZINC000432253027    0.2100
     16 N16        -6.1561    3.5148   52.0588 N.2     1  ZINC000432253027   -0.2700
     17 N17        -5.8228    2.8133   51.0308 N.2     1  ZINC000432253027   -0.0500
     18 N18        -4.5581    2.5754   51.0672 N.2     1  ZINC000432253027   -0.0700
     19 N19        -4.0610    3.1286   52.1216 N.pl3   1  ZINC000432253027   -0.3100
     20 C20        -2.6574    3.0995   52.5399 C.3     1  ZINC000432253027    0.0700
     21 C21        -1.7602    2.9770   51.3067 C.3     1  ZINC000432253027    0.4300
     22 F22        -0.4187    3.0510   51.6968 F       1  ZINC000432253027   -0.1500
     23 F23        -1.9961    1.7494   50.6783 F       1  ZINC000432253027   -0.1700
     24 F24        -2.0453    4.0186   50.4172 F       1  ZINC000432253027   -0.1700
     25 C25        -8.6078    1.5569   55.7742 C.2     1  ZINC000432253027   -0.2500
     26 S26        -9.6933    1.1201   57.0923 S.3     1  ZINC000432253027    0.1600
     27 H27        -9.1977   -2.6641   58.8990 H       1  ZINC000432253027    0.1000
     28 H28        -9.7783   -2.1384   60.4974 H       1  ZINC000432253027    0.0600
     29 H29       -10.2952   -1.2691   59.0326 H       1  ZINC000432253027    0.0600
     30 H30        -8.5994   -0.8335   62.2317 H       1  ZINC000432253027    0.1400
     31 H31        -8.9146    1.2139   63.5566 H       1  ZINC000432253027    0.1300
     32 H32        -9.0134    3.4064   62.4480 H       1  ZINC000432253027    0.1300
     33 H33        -8.7993    3.5688   60.0044 H       1  ZINC000432253027    0.1400
     34 H34        -5.3548    2.2273   55.9844 H       1  ZINC000432253027    0.1000
     35 H35        -6.2836    1.8284   54.5193 H       1  ZINC000432253027    0.1100
     36 H36        -4.9366    5.5719   53.8382 H       1  ZINC000432253027    0.1100
     37 H37        -4.0916    4.2045   54.6025 H       1  ZINC000432253027    0.1300
     38 H38        -2.4181    4.0194   53.0734 H       1  ZINC000432253027    0.1500
     39 H39        -2.4915    2.2451   53.1962 H       1  ZINC000432253027    0.1600
     40 H40        -8.8389    1.5061   54.7205 H       1  ZINC000432253027    0.1800
@<TRIPOS>BOND
     1     1     2    1
     2     1    27    1
     3     1    28    1
     4     1    29    1
     5     2     3    1
     6     3     8   ar
     7     3     4   ar
     8     4     5   ar
     9     4    30    1
    10     5     6   ar
    11     5    31    1
    12     6     7   ar
    13     6    32    1
    14     7     8   ar
    15     7    33    1
    16     8     9    1
    17     9    26    1
    18     9    10    2
    19    10    11    1
    20    11    12    1
    21    11    25    2
    22    12    13    1
    23    12    34    1
    24    12    35    1
    25    13    14    1
    26    14    15    1
    27    14    36    1
    28    14    37    1
    29    15    19    1
    30    15    16    2
    31    16    17    1
    32    17    18    2
    33    18    19    1
    34    19    20    1
    35    20    21    1
    36    20    38    1
    37    20    39    1
    38    21    22    1
    39    21    23    1
    40    21    24    1
    41    25    26    1
    42    25    40    1
@<TRIPOS>SUBSTRUCTURE
     1 ZINC000432253027        1 TEMP              0 ****  ****    0 ROOT


##########                                Name:    ZINC000022858610
##########                DOCK_Rotatable_Bonds:                   9
##########                         Heavy_Atoms:                  26
##########                    Molecular_Weight:             369.343
##########                DOCK_Rotatable_Bonds:                   9
##########                       Formal_Charge:          0.00999956
##########                     HBond_Acceptors:                   9
##########                        HBond_Donors:                   2
##########                         Heavy_Atoms:                  26
##########                          Grid_Score:          -28.397675
##########                     Grid_vdw_energy:          -23.666529
##########                      Grid_es_energy:           -4.731145
##########           Internal_energy_repulsive:           18.118448

@<TRIPOS>MOLECULE
ZINC000022858610
 44 45 1 0 0
SMALL
USER_CHARGES


@<TRIPOS>ATOM
      1 C1         -0.3189    2.0313   58.9203 C.3     1  <0>         0.0100
      2 N2          0.5475    2.8258   58.0394 N.3     1  <0>        -0.5300
      3 C3          1.9645    2.6133   58.3635 C.3     1  <0>         0.0200
      4 C4          0.2798    2.5250   56.6267 C.3     1  <0>         0.1500
      5 H5          0.5085    1.4780   56.4285 H       1  <0>         0.1200
      6 C6          1.1546    3.4147   55.7413 C.3     1  <0>         0.1300
      7 N7          0.8110    3.1924   54.3346 N.am    1  <0>        -0.6800
      8 C8          1.0996    4.1332   53.4137 C.2     1  <0>         0.5100
      9 O9          1.6454    5.1638   53.7494 O.2     1  <0>        -0.5100
     10 C10         0.7476    3.9073   51.9799 C.2     1  <0>         0.5200
     11 O11         1.0669    4.7239   51.1407 O.2     1  <0>        -0.4900
     12 N12         0.0755    2.7965   51.6179 N.am    1  <0>        -0.6500
     13 C13        -0.2538    2.5852   50.2764 C.ar    1  <0>         0.1900
     14 C14         0.7220    2.1766   49.3762 C.ar    1  <0>        -0.1200
     15 C15         0.3930    1.9688   48.0509 C.ar    1  <0>        -0.0700
     16 C16        -0.9059    2.1670   47.6201 C.ar    1  <0>        -0.1300
     17 C17        -1.8798    2.5743   48.5137 C.ar    1  <0>        -0.0500
     18 C18        -1.5593    2.7780   49.8413 C.ar    1  <0>        -0.2100
     19 C19        -2.6210    3.2218   50.8142 C.3     1  <0>         0.5100
     20 F20        -2.5482    2.4404   51.9723 F       1  <0>        -0.1700
     21 F21        -2.4180    4.5658   51.1450 F       1  <0>        -0.1800
     22 F22        -3.8826    3.0710   50.2285 F       1  <0>        -0.1700
     23 C23        -1.1728    2.7880   56.3237 C.2     1  <0>        -0.0500
     24 C24        -1.7276    3.9963   56.1194 C.2     1  <0>        -0.1900
     25 C25        -3.1021    3.7790   55.8699 C.2     1  <0>        -0.2100
     26 C26        -3.3052    2.4510   55.9368 C.2     1  <0>        -0.0400
     27 O27        -2.1320    1.8553   56.2063 O.3     1  <0>        -0.1700
     28 H28        -0.2372    2.4029   59.9417 H       1  <0>         0.0700
     29 H29        -1.3526    2.1149   58.5849 H       1  <0>         0.0700
     30 H30        -0.0097    0.9865   58.8879 H       1  <0>         0.0500
     31 H31         2.2116    1.5590   58.2385 H       1  <0>         0.0300
     32 H32         2.5837    3.2132   57.6965 H       1  <0>         0.0700
     33 H33         2.1495    2.9098   59.3959 H       1  <0>         0.0800
     34 H34         0.9842    4.4608   55.9960 H       1  <0>         0.0900
     35 H35         2.2040    3.1679   55.9023 H       1  <0>         0.0800
     36 H36         0.3759    2.3682   54.0661 H       1  <0>         0.4200
     37 H37        -0.1796    2.1439   52.2885 H       1  <0>         0.4300
     38 H38         1.7367    2.0219   49.7120 H       1  <0>         0.1500
     39 H39         1.1512    1.6513   47.3504 H       1  <0>         0.1400
     40 H40        -1.1603    2.0037   46.5833 H       1  <0>         0.1400
     41 H41        -2.8931    2.7289   48.1737 H       1  <0>         0.1500
     42 H42        -1.2203    4.9495   56.1420 H       1  <0>         0.1500
     43 H43        -3.8464    4.5345   55.6653 H       1  <0>         0.1500
     44 H44        -4.2506    1.9487   55.7940 H       1  <0>         0.2000
@<TRIPOS>BOND
     1     1     2    1
     2     1    28    1
     3     1    29    1
     4     1    30    1
     5     2     3    1
     6     2     4    1
     7     3    31    1
     8     3    32    1
     9     3    33    1
    10     4     5    1
    11     4     6    1
    12     4    23    1
    13     6     7    1
    14     6    34    1
    15     6    35    1
    16     7     8   am
    17     7    36    1
    18     8     9    2
    19     8    10    1
    20    10    11    2
    21    10    12   am
    22    12    13    1
    23    12    37    1
    24    13    18   ar
    25    13    14   ar
    26    14    15   ar
    27    14    38    1
    28    15    16   ar
    29    15    39    1
    30    16    17   ar
    31    16    40    1
    32    17    18   ar
    33    17    41    1
    34    18    19    1
    35    19    20    1
    36    19    21    1
    37    19    22    1
    38    23    27    1
    39    23    24    2
    40    24    25    1
    41    24    42    1
    42    25    26    2
    43    25    43    1
    44    26    27    1
    45    26    44    1
@<TRIPOS>SUBSTRUCTURE
     1 <0>         1 TEMP              0 ****  ****    0 ROOT


##########                                Name:    ZINC000523153175
##########                DOCK_Rotatable_Bonds:                   9
##########                         Heavy_Atoms:                  30
##########                    Molecular_Weight:             413.603
##########                DOCK_Rotatable_Bonds:                   9
##########                       Formal_Charge:           0.0499987
##########                     HBond_Acceptors:                   5
##########                        HBond_Donors:                   1
##########                         Heavy_Atoms:                  30
##########                          Grid_Score:          -28.374456
##########                     Grid_vdw_energy:          -27.295719
##########                      Grid_es_energy:           -1.078737
##########           Internal_energy_repulsive:           37.136585

@<TRIPOS>MOLECULE
ZINC000523153175
 69 71 1 0 0
SMALL
USER_CHARGES


@<TRIPOS>ATOM
      1 C1         -0.9284    2.0834   63.0181 C.3     1  ZINC000523153175   -0.1500
      2 C2          0.0794    1.8913   61.8830 C.3     1  ZINC000523153175   -0.0600
      3 C3          0.3206    0.3966   61.6626 C.3     1  ZINC000523153175   -0.1400
      4 C4         -0.4653    2.5041   60.6186 C.ar    1  ZINC000523153175   -0.0800
      5 C5         -0.6395    1.7232   59.4914 C.ar    1  ZINC000523153175   -0.1100
      6 C6         -1.1392    2.2853   58.3316 C.ar    1  ZINC000523153175   -0.1100
      7 C7         -1.4651    3.6284   58.2991 C.ar    1  ZINC000523153175   -0.0800
      8 C8         -2.0094    4.2412   57.0344 C.3     1  ZINC000523153175   -0.0300
      9 H9         -2.0881    5.3212   57.1588 H       1  ZINC000523153175    0.0800
     10 C10        -1.0671    3.9293   55.8701 C.3     1  ZINC000523153175   -0.1500
     11 C11        -3.3935    3.6593   56.7405 C.3     1  ZINC000523153175   -0.1300
     12 C12        -4.4528    4.5902   57.2718 C.2     1  ZINC000523153175    0.5200
     13 O13        -4.1747    5.3965   58.1340 O.2     1  ZINC000523153175   -0.5300
     14 N14        -5.7095    4.5267   56.7888 N.am    1  ZINC000523153175   -0.6200
     15 C15        -6.0702    3.5511   55.7488 C.3     1  ZINC000523153175    0.1100
     16 C16        -7.3150    2.7858   56.2100 C.3     1  ZINC000523153175    0.0400
     17 N17        -8.3737    3.7431   56.5576 N.3     1  ZINC000523153175   -0.5100
     18 C18        -9.6379    3.0503   56.8400 C.3     1  ZINC000523153175    0.0600
     19 H19       -10.2443    3.6595   57.5102 H       1  ZINC000523153175    0.1100
     20 C20       -10.3973    2.8215   55.5316 C.3     1  ZINC000523153175   -0.1800
     21 C21        -9.3484    1.7226   57.4917 C.2     1  ZINC000523153175    0.5200
     22 O22        -9.1700    0.7373   56.8075 O.2     1  ZINC000523153175   -0.5200
     23 N23        -9.2879    1.6304   58.8350 N.am    1  ZINC000523153175   -0.7200
     24 C24        -9.0048    0.3401   59.4684 C.3     1  ZINC000523153175    0.1400
     25 C25        -8.5580    0.5552   60.9292 C.3     1  ZINC000523153175   -0.1300
     26 C26        -9.8555    0.3697   61.7546 C.3     1  ZINC000523153175   -0.1300
     27 C27       -10.5702   -0.7867   61.0123 C.3     1  ZINC000523153175   -0.1300
     28 C28       -10.2843   -0.5132   59.5213 C.3     1  ZINC000523153175   -0.1300
     29 C29        -7.9745    4.5917   57.6883 C.3     1  ZINC000523153175    0.0400
     30 C30        -6.7581    5.4269   57.2921 C.3     1  ZINC000523153175    0.1200
     31 C31        -1.2922    4.4089   59.4267 C.ar    1  ZINC000523153175   -0.1100
     32 C32        -0.7961    3.8460   60.5877 C.ar    1  ZINC000523153175   -0.1200
     33 H33        -0.5345    1.6401   63.9327 H       1  ZINC000523153175    0.0600
     34 H34        -1.1002    3.1482   63.1751 H       1  ZINC000523153175    0.0600
     35 H35        -1.8686    1.5986   62.7551 H       1  ZINC000523153175    0.0600
     36 H36         1.0196    2.3761   62.1460 H       1  ZINC000523153175    0.0800
     37 H37        -0.6196   -0.0882   61.3996 H       1  ZINC000523153175    0.0600
     38 H38         1.0385    0.2598   60.8539 H       1  ZINC000523153175    0.0600
     39 H39         0.7145   -0.0466   62.5771 H       1  ZINC000523153175    0.0600
     40 H40        -0.3849    0.6739   59.5167 H       1  ZINC000523153175    0.1200
     41 H41        -1.2747    1.6753   57.4506 H       1  ZINC000523153175    0.1200
     42 H42        -1.4608    4.3725   54.9554 H       1  ZINC000523153175    0.0800
     43 H43        -0.0810    4.3438   56.0795 H       1  ZINC000523153175    0.0600
     44 H44        -0.9884    2.8492   55.7458 H       1  ZINC000523153175    0.0500
     45 H45        -3.5180    3.5440   55.6638 H       1  ZINC000523153175    0.0900
     46 H46        -3.4889    2.6869   57.2235 H       1  ZINC000523153175    0.0900
     47 H47        -6.2856    4.0729   54.8164 H       1  ZINC000523153175    0.0800
     48 H48        -5.2459    2.8537   55.5995 H       1  ZINC000523153175    0.0900
     49 H49        -7.6615    2.1365   55.4060 H       1  ZINC000523153175    0.0900
     50 H50        -7.0685    2.1831   57.0841 H       1  ZINC000523153175    0.0400
     51 H51        -9.7909    2.2122   54.8614 H       1  ZINC000523153175    0.0700
     52 H52       -11.3353    2.3073   55.7411 H       1  ZINC000523153175    0.0700
     53 H53       -10.6066    3.7817   55.0602 H       1  ZINC000523153175    0.0700
     54 H54        -9.4318    2.4182   59.3822 H       1  ZINC000523153175    0.4000
     55 H55        -8.2280   -0.1858   58.9132 H       1  ZINC000523153175    0.0900
     56 H56        -7.8147   -0.1892   61.2144 H       1  ZINC000523153175    0.0700
     57 H57        -8.1617    1.5620   61.0626 H       1  ZINC000523153175    0.0700
     58 H58        -9.6231    0.0849   62.7807 H       1  ZINC000523153175    0.0700
     59 H59       -10.4607    1.2760   61.7317 H       1  ZINC000523153175    0.0700
     60 H60       -10.1520   -1.7478   61.3110 H       1  ZINC000523153175    0.0700
     61 H61       -11.6425   -0.7593   61.2063 H       1  ZINC000523153175    0.0700
     62 H62       -11.1158    0.0328   59.0756 H       1  ZINC000523153175    0.0700
     63 H63       -10.1281   -1.4534   58.9924 H       1  ZINC000523153175    0.0800
     64 H64        -8.7992    5.2521   57.9563 H       1  ZINC000523153175    0.1000
     65 H65        -7.7187    3.9638   58.5418 H       1  ZINC000523153175    0.0400
     66 H66        -6.3891    5.9716   58.1611 H       1  ZINC000523153175    0.1000
     67 H67        -7.0366    6.1299   56.5070 H       1  ZINC000523153175    0.0800
     68 H68        -1.5471    5.4581   59.4014 H       1  ZINC000523153175    0.1200
     69 H69        -0.6611    4.4558   61.4687 H       1  ZINC000523153175    0.1200
@<TRIPOS>BOND
     1     1     2    1
     2     1    33    1
     3     1    34    1
     4     1    35    1
     5     2     3    1
     6     2     4    1
     7     2    36    1
     8     3    37    1
     9     3    38    1
    10     3    39    1
    11     4    32   ar
    12     4     5   ar
    13     5     6   ar
    14     5    40    1
    15     6     7   ar
    16     6    41    1
    17     7     8    1
    18     7    31   ar
    19     8     9    1
    20     8    10    1
    21     8    11    1
    22    10    42    1
    23    10    43    1
    24    10    44    1
    25    11    12    1
    26    11    45    1
    27    11    46    1
    28    12    13    2
    29    12    14   am
    30    14    30    1
    31    14    15    1
    32    15    16    1
    33    15    47    1
    34    15    48    1
    35    16    17    1
    36    16    49    1
    37    16    50    1
    38    17    18    1
    39    17    29    1
    40    18    19    1
    41    18    20    1
    42    18    21    1
    43    20    51    1
    44    20    52    1
    45    20    53    1
    46    21    22    2
    47    21    23   am
    48    23    24    1
    49    23    54    1
    50    24    28    1
    51    24    25    1
    52    24    55    1
    53    25    26    1
    54    25    56    1
    55    25    57    1
    56    26    27    1
    57    26    58    1
    58    26    59    1
    59    27    28    1
    60    27    60    1
    61    27    61    1
    62    28    62    1
    63    28    63    1
    64    29    30    1
    65    29    64    1
    66    29    65    1
    67    30    66    1
    68    30    67    1
    69    31    32   ar
    70    31    68    1
    71    32    69    1
@<TRIPOS>SUBSTRUCTURE
     1 ZINC000523153175        1 TEMP              0 ****  ****    0 ROOT


##########                                Name:    ZINC000821442454
##########                DOCK_Rotatable_Bonds:                   6
##########                         Heavy_Atoms:                  26
##########                    Molecular_Weight:             398.873
##########                DOCK_Rotatable_Bonds:                   6
##########                       Formal_Charge:          -0.0399996
##########                     HBond_Acceptors:                  11
##########                        HBond_Donors:                   2
##########                         Heavy_Atoms:                  26
##########                          Grid_Score:          -28.354172
##########                     Grid_vdw_energy:          -25.351515
##########                      Grid_es_energy:           -3.002656
##########           Internal_energy_repulsive:           11.641190

@<TRIPOS>MOLECULE
ZINC000821442454
 45 47 1 0 0
SMALL
USER_CHARGES


@<TRIPOS>ATOM
      1 C1         -8.1602    4.0252   54.7970 C.3     1  ZINC000821442454   -0.1500
      2 C2         -6.6526    3.8451   54.6082 C.3     1  ZINC000821442454   -0.6300
      3 S3         -5.8856    3.4546   56.2050 S.o2    1  ZINC000821442454    2.6000
      4 O4         -5.9015    4.5915   57.0572 O.2     1  ZINC000821442454   -0.9500
      5 O5         -6.3208    2.1842   56.6698 O.2     1  ZINC000821442454   -0.9500
      6 N6         -4.2832    3.2326   55.8504 N.am    1  ZINC000821442454   -1.0000
      7 C7         -3.3221    2.8949   56.9091 C.3     1  ZINC000821442454    0.1100
      8 C8         -2.1670    3.9003   56.8655 C.3     1  ZINC000821442454   -0.1300
      9 C9         -1.5686    3.9230   55.4572 C.3     1  ZINC000821442454   -0.1100
     10 C10        -2.6355    4.3692   54.4549 C.3     1  ZINC000821442454   -0.1200
     11 H11        -3.0033    5.3576   54.7308 H       1  ZINC000821442454    0.1100
     12 C12        -2.0364    4.4232   53.0731 C.2     1  ZINC000821442454    0.5300
     13 O13        -1.9474    5.4839   52.4917 O.2     1  ZINC000821442454   -0.5100
     14 N14        -1.5996    3.2927   52.4835 N.am    1  ZINC000821442454   -0.6700
     15 C15        -1.0435    3.3427   51.2010 C.ar    1  ZINC000821442454    0.1800
     16 C16         0.2902    3.6943   51.0364 C.ar    1  ZINC000821442454   -0.1200
     17 C17         0.8409    3.7437   49.7729 C.ar    1  ZINC000821442454   -0.0500
     18 C18         0.0587    3.4408   48.6604 C.ar    1  ZINC000821442454   -0.0300
     19 C19         0.6498    3.4931   47.3000 C.2     1  ZINC000821442454    0.2200
     20 N20         0.2859    2.7762   46.2552 N.2     1  ZINC000821442454   -0.2900
     21 N21         1.0384    3.1129   45.2646 N.pl3   1  ZINC000821442454   -0.2200
     22 N22         1.8671    4.0202   45.6483 N.2     1  ZINC000821442454   -0.0400
     23 N23         1.6539    4.2828   46.8929 N.2     1  ZINC000821442454   -0.2700
     24 C24        -1.2795    3.0881   48.8266 C.ar    1  ZINC000821442454   -0.0500
     25 C25        -1.8252    3.0346   50.0925 C.ar    1  ZINC000821442454   -0.0800
     26 Cl26       -3.4918    2.5955   50.3009 Cl      1  ZINC000821442454   -0.0500
     27 C27        -3.7968    3.3636   54.4702 C.3     1  ZINC000821442454    0.1400
     28 H28        -8.5896    3.1040   55.1908 H       1  ZINC000821442454    0.0700
     29 H29        -8.3438    4.8400   55.4974 H       1  ZINC000821442454    0.0700
     30 H30        -8.6210    4.2599   53.8376 H       1  ZINC000821442454    0.0800
     31 H31        -6.4690    3.0303   53.9078 H       1  ZINC000821442454    0.1300
     32 H32        -6.2231    4.7664   54.2145 H       1  ZINC000821442454    0.1300
     33 H33        -3.8149    2.9462   57.8800 H       1  ZINC000821442454    0.1000
     34 H34        -2.9368    1.8884   56.7454 H       1  ZINC000821442454    0.0700
     35 H35        -2.5392    4.8930   57.1187 H       1  ZINC000821442454    0.0700
     36 H36        -1.4004    3.6049   57.5819 H       1  ZINC000821442454    0.0800
     37 H37        -0.7307    4.6196   55.4298 H       1  ZINC000821442454    0.0700
     38 H38        -1.2191    2.9244   55.1950 H       1  ZINC000821442454    0.0800
     39 H39        -1.6708    2.4444   52.9485 H       1  ZINC000821442454    0.4200
     40 H40         0.8965    3.9295   51.8988 H       1  ZINC000821442454    0.1600
     41 H41         1.8778    4.0176   49.6458 H       1  ZINC000821442454    0.1500
     42 H42         0.9883    2.7409   44.3701 H       1  ZINC000821442454    0.4800
     43 H43        -1.8874    2.8530   47.9656 H       1  ZINC000821442454    0.1500
     44 H44        -3.4480    2.3970   54.1067 H       1  ZINC000821442454    0.0800
     45 H45        -4.6030    3.7267   53.8329 H       1  ZINC000821442454    0.1000
@<TRIPOS>BOND
     1     1     2    1
     2     1    28    1
     3     1    29    1
     4     1    30    1
     5     2     3    1
     6     2    31    1
     7     2    32    1
     8     3     4    2
     9     3     5    2
    10     3     6   am
    11     6    27    1
    12     6     7    1
    13     7     8    1
    14     7    33    1
    15     7    34    1
    16     8     9    1
    17     8    35    1
    18     8    36    1
    19     9    10    1
    20     9    37    1
    21     9    38    1
    22    10    11    1
    23    10    12    1
    24    10    27    1
    25    12    13    2
    26    12    14   am
    27    14    15    1
    28    14    39    1
    29    15    25   ar
    30    15    16   ar
    31    16    17   ar
    32    16    40    1
    33    17    18   ar
    34    17    41    1
    35    18    19    1
    36    18    24   ar
    37    19    23    1
    38    19    20    2
    39    20    21    1
    40    21    22    1
    41    21    42    1
    42    22    23    2
    43    24    25   ar
    44    24    43    1
    45    25    26    1
    46    27    44    1
    47    27    45    1
@<TRIPOS>SUBSTRUCTURE
     1 ZINC000821442454        1 TEMP              0 ****  ****    0 ROOT


##########                                Name:    ZINC001326371752
##########                DOCK_Rotatable_Bonds:                   5
##########                         Heavy_Atoms:                  25
##########                    Molecular_Weight:             360.397
##########                DOCK_Rotatable_Bonds:                   5
##########                       Formal_Charge:           0.0199999
##########                     HBond_Acceptors:                  10
##########                        HBond_Donors:                   0
##########                         Heavy_Atoms:                  25
##########                          Grid_Score:          -28.300915
##########                     Grid_vdw_energy:          -26.869959
##########                      Grid_es_energy:           -1.430957
##########           Internal_energy_repulsive:            9.129980

@<TRIPOS>MOLECULE
ZINC001326371752
 41 44 1 0 0
SMALL
USER_CHARGES


@<TRIPOS>ATOM
      1 C1        -15.3867   -6.0474   56.7772 C.3     1  ZINC001326371752    0.0300
      2 O2        -15.6740   -5.3574   55.5592 O.3     1  ZINC001326371752   -0.3800
      3 C3        -14.9355   -4.1458   55.3894 C.3     1  ZINC001326371752    0.0500
      4 C4        -15.9068   -2.9727   55.2436 C.3     1  ZINC001326371752    0.1200
      5 N5        -16.4547   -2.6262   56.5573 N.pl3   1  ZINC001326371752   -0.2800
      6 N6        -17.6595   -2.8543   56.9608 N.2     1  ZINC001326371752   -0.0800
      7 N7        -17.8164   -2.4220   58.1664 N.2     1  ZINC001326371752   -0.2500
      8 C8        -16.6721   -1.8869   58.5765 C.2     1  ZINC001326371752   -0.0400
      9 C9        -15.7888   -2.0197   57.5562 C.2     1  ZINC001326371752    0.0000
     10 C10       -14.3580   -1.5548   57.5958 C.3     1  ZINC001326371752   -0.0600
     11 C11       -14.1989   -0.5448   58.7400 C.3     1  ZINC001326371752    0.1200
     12 N12       -14.8769   -1.0602   59.9386 N.am    1  ZINC001326371752   -0.6100
     13 C13       -14.1775   -1.3631   61.0502 C.2     1  ZINC001326371752    0.6100
     14 O14       -14.7534   -1.7888   62.0342 O.2     1  ZINC001326371752   -0.5100
     15 C15       -12.7218   -1.1797   61.0741 C.2     1  ZINC001326371752   -0.3400
     16 C16       -11.8692   -2.1819   60.5970 C.2     1  ZINC001326371752    0.2400
     17 N17       -10.5653   -1.9827   60.6338 N.2     1  ZINC001326371752   -0.5100
     18 C18       -10.0405   -0.8612   61.1096 C.2     1  ZINC001326371752    0.2900
     19 S19        -8.3968   -0.3698   61.2623 S.3     1  ZINC001326371752    0.2500
     20 C20        -8.7775    1.2058   61.9747 C.2     1  ZINC001326371752   -0.2100
     21 C21       -10.0972    1.2499   62.0462 C.2     1  ZINC001326371752    0.0500
     22 N22       -10.7979    0.1591   61.5910 N.am    1  ZINC001326371752   -0.4600
     23 C23       -12.1555    0.0135   61.5735 C.2     1  ZINC001326371752    0.5500
     24 O24       -12.8736    0.9057   61.9904 O.2     1  ZINC001326371752   -0.5000
     25 C25       -16.3391   -1.2419   59.8978 C.3     1  ZINC001326371752    0.2000
     26 H26       -15.9870   -6.9556   56.8305 H       1  ZINC001326371752    0.0900
     27 H27       -14.3289   -6.3087   56.8059 H       1  ZINC001326371752    0.0500
     28 H28       -15.6251   -5.4041   57.6241 H       1  ZINC001326371752    0.0500
     29 H29       -14.2981   -3.9839   56.2587 H       1  ZINC001326371752    0.0600
     30 H30       -14.3176   -4.2193   54.4945 H       1  ZINC001326371752    0.0600
     31 H31       -15.3786   -2.1128   54.8318 H       1  ZINC001326371752    0.1200
     32 H32       -16.7193   -3.2548   54.5740 H       1  ZINC001326371752    0.1200
     33 H33       -13.7012   -2.4076   57.7671 H       1  ZINC001326371752    0.0900
     34 H34       -14.1023   -1.0782   56.6495 H       1  ZINC001326371752    0.1000
     35 H35       -13.1398   -0.4011   58.9543 H       1  ZINC001326371752    0.1100
     36 H36       -14.6449    0.4067   58.4504 H       1  ZINC001326371752    0.0800
     37 H37       -12.2722   -3.1040   60.2050 H       1  ZINC001326371752    0.1900
     38 H38        -8.0796    1.9691   62.2857 H       1  ZINC001326371752    0.2200
     39 H39       -10.6064    2.1131   62.4484 H       1  ZINC001326371752    0.2000
     40 H40       -16.8354   -0.2740   59.9682 H       1  ZINC001326371752    0.1000
     41 H41       -16.6564   -1.8836   60.7197 H       1  ZINC001326371752    0.1000
@<TRIPOS>BOND
     1     1     2    1
     2     1    26    1
     3     1    27    1
     4     1    28    1
     5     2     3    1
     6     3     4    1
     7     3    29    1
     8     3    30    1
     9     4     5    1
    10     4    31    1
    11     4    32    1
    12     5     9    1
    13     5     6    1
    14     6     7    2
    15     7     8    1
    16     8    25    1
    17     8     9    2
    18     9    10    1
    19    10    11    1
    20    10    33    1
    21    10    34    1
    22    11    12    1
    23    11    35    1
    24    11    36    1
    25    12    13   am
    26    12    25    1
    27    13    14    2
    28    13    15    1
    29    15    23    1
    30    15    16    2
    31    16    17    1
    32    16    37    1
    33    17    18    2
    34    18    22    1
    35    18    19    1
    36    19    20    1
    37    20    21    2
    38    20    38    1
    39    21    22    1
    40    21    39    1
    41    22    23   am
    42    23    24    2
    43    25    40    1
    44    25    41    1
@<TRIPOS>SUBSTRUCTURE
     1 ZINC001326371752        1 TEMP              0 ****  ****    0 ROOT


##########                                Name:    ZINC000188380122
##########                DOCK_Rotatable_Bonds:                   6
##########                         Heavy_Atoms:                  27
##########                    Molecular_Weight:             396.433
##########                DOCK_Rotatable_Bonds:                   6
##########                       Formal_Charge:           0.0299998
##########                     HBond_Acceptors:                   8
##########                        HBond_Donors:                   1
##########                         Heavy_Atoms:                  27
##########                          Grid_Score:          -28.284218
##########                     Grid_vdw_energy:          -27.726616
##########                      Grid_es_energy:           -0.557602
##########           Internal_energy_repulsive:            9.197579

@<TRIPOS>MOLECULE
ZINC000188380122
 46 49 1 0 0
SMALL
USER_CHARGES


@<TRIPOS>ATOM
      1 O1        -10.5509   -2.7101   57.3916 O.2     1  ZINC000188380122   -0.5200
      2 C2        -10.8659   -1.5417   57.3103 C.2     1  ZINC000188380122    0.5200
      3 C3        -11.7860   -1.0844   56.2079 C.3     1  ZINC000188380122   -0.0700
      4 C4        -10.9683   -0.6530   55.0177 C.2     1  ZINC000188380122    0.0900
      5 C5        -11.2618   -1.0469   53.7740 C.2     1  ZINC000188380122   -0.2400
      6 S6        -10.0805   -0.3345   52.6770 S.3     1  ZINC000188380122    0.1000
      7 C7         -9.2879    0.4443   54.0443 C.2     1  ZINC000188380122    0.1100
      8 C8         -8.0932    1.3117   53.9634 C.ar    1  ZINC000188380122   -0.0200
      9 C9         -7.5549    1.8725   55.1222 C.ar    1  ZINC000188380122   -0.0400
     10 C10        -6.4396    2.6809   55.0399 C.ar    1  ZINC000188380122   -0.1200
     11 C11        -5.8556    2.9360   53.8121 C.ar    1  ZINC000188380122   -0.0600
     12 C12        -6.3847    2.3828   52.6593 C.ar    1  ZINC000188380122   -0.1800
     13 C13        -5.7416    2.6658   51.3261 C.3     1  ZINC000188380122    0.5100
     14 F14        -6.2905    3.8317   50.7816 F       1  ZINC000188380122   -0.1700
     15 F15        -4.3638    2.8358   51.4995 F       1  ZINC000188380122   -0.1700
     16 F16        -5.9735    1.5923   50.4594 F       1  ZINC000188380122   -0.1700
     17 C17        -7.4959    1.5685   52.7285 C.ar    1  ZINC000188380122   -0.0500
     18 N18        -9.9267    0.1376   55.1370 N.2     1  ZINC000188380122   -0.4300
     19 N19       -10.3976   -0.6533   58.2091 N.am    1  ZINC000188380122   -0.7200
     20 C20        -9.5032   -1.0979   59.2808 C.3     1  ZINC000188380122    0.1300
     21 H21        -8.8742   -1.9381   58.9866 H       1  ZINC000188380122    0.1200
     22 C22       -10.2117   -1.3008   60.6319 C.3     1  ZINC000188380122   -0.1800
     23 C23        -8.9607   -0.6890   61.2733 C.3     1  ZINC000188380122    0.0900
     24 H24        -8.1926   -1.4406   61.4564 H       1  ZINC000188380122    0.1200
     25 O25        -9.1906    0.0998   62.4136 O.3     1  ZINC000188380122   -0.3700
     26 C26        -9.8719    1.3336   62.2820 C.3     1  ZINC000188380122    0.0700
     27 C27        -9.2931    2.1557   61.1314 C.3     1  ZINC000188380122   -0.1600
     28 C28        -9.4711    1.3682   59.8297 C.3     1  ZINC000188380122   -0.1100
     29 C29        -8.7253    0.0512   59.9539 C.3     1  ZINC000188380122   -0.1500
     30 H30        -7.6786    0.1178   59.6570 H       1  ZINC000188380122    0.0900
     31 H31       -12.4430   -1.9049   55.9191 H       1  ZINC000188380122    0.1100
     32 H32       -12.3859   -0.2452   56.5599 H       1  ZINC000188380122    0.1100
     33 H33       -12.0812   -1.6908   53.4906 H       1  ZINC000188380122    0.1800
     34 H34        -8.0104    1.6747   56.0812 H       1  ZINC000188380122    0.1500
     35 H35        -6.0219    3.1155   55.9359 H       1  ZINC000188380122    0.1400
     36 H36        -4.9832    3.5698   53.7531 H       1  ZINC000188380122    0.1500
     37 H37        -7.9078    1.1373   51.8280 H       1  ZINC000188380122    0.1400
     38 H38       -10.6527    0.2804   58.1463 H       1  ZINC000188380122    0.4000
     39 H39       -11.1081   -0.6923   60.7524 H       1  ZINC000188380122    0.0900
     40 H40       -10.3698   -2.3477   60.8910 H       1  ZINC000188380122    0.0800
     41 H41       -10.9274    1.1414   62.0895 H       1  ZINC000188380122    0.0500
     42 H42        -9.7745    1.8974   63.2097 H       1  ZINC000188380122    0.1000
     43 H43        -9.8215    3.1064   61.0591 H       1  ZINC000188380122    0.0800
     44 H44        -8.2327    2.3362   61.3078 H       1  ZINC000188380122    0.0800
     45 H45       -10.5305    1.1743   59.6619 H       1  ZINC000188380122    0.0700
     46 H46        -9.0662    1.9427   58.9967 H       1  ZINC000188380122    0.0800
@<TRIPOS>BOND
     1     1     2    2
     2     2     3    1
     3     2    19   am
     4     3     4    1
     5     3    31    1
     6     3    32    1
     7     4    18    1
     8     4     5    2
     9     5     6    1
    10     5    33    1
    11     6     7    1
    12     7     8    1
    13     7    18    2
    14     8    17   ar
    15     8     9   ar
    16     9    10   ar
    17     9    34    1
    18    10    11   ar
    19    10    35    1
    20    11    12   ar
    21    11    36    1
    22    12    13    1
    23    12    17   ar
    24    13    14    1
    25    13    15    1
    26    13    16    1
    27    17    37    1
    28    19    20    1
    29    19    38    1
    30    20    21    1
    31    20    29    1
    32    20    22    1
    33    22    23    1
    34    22    39    1
    35    22    40    1
    36    23    24    1
    37    23    29    1
    38    23    25    1
    39    25    26    1
    40    26    27    1
    41    26    41    1
    42    26    42    1
    43    27    28    1
    44    27    43    1
    45    27    44    1
    46    28    29    1
    47    28    45    1
    48    28    46    1
    49    29    30    1
@<TRIPOS>SUBSTRUCTURE
     1 ZINC000188380122        1 TEMP              0 ****  ****    0 ROOT


##########                                Name:    ZINC000650955167
##########                DOCK_Rotatable_Bonds:                   9
##########                         Heavy_Atoms:                  26
##########                    Molecular_Weight:             361.484
##########                DOCK_Rotatable_Bonds:                   9
##########                       Formal_Charge:        -7.07805e-07
##########                     HBond_Acceptors:                   6
##########                        HBond_Donors:                   2
##########                         Heavy_Atoms:                  26
##########                          Grid_Score:          -28.221889
##########                     Grid_vdw_energy:          -27.321865
##########                      Grid_es_energy:           -0.900025
##########           Internal_energy_repulsive:           24.302322

@<TRIPOS>MOLECULE
ZINC000650955167
 57 59 1 0 0
SMALL
USER_CHARGES


@<TRIPOS>ATOM
      1 C1         -8.1418   -0.1899   63.3389 C.3     1  ZINC000650955167    0.0200
      2 O2         -9.2815    0.0706   62.5171 O.3     1  ZINC000650955167   -0.3200
      3 C3         -9.1100    0.9309   61.4791 C.ar    1  ZINC000650955167    0.1300
      4 C4         -9.1009    2.2994   61.7054 C.ar    1  ZINC000650955167   -0.2000
      5 C5         -8.9259    3.1720   60.6484 C.ar    1  ZINC000650955167   -0.0800
      6 C6         -8.7602    2.6822   59.3663 C.ar    1  ZINC000650955167   -0.1500
      7 C7         -8.7694    1.3183   59.1381 C.ar    1  ZINC000650955167   -0.0800
      8 C8         -8.9379    0.4416   60.1922 C.ar    1  ZINC000650955167   -0.1100
      9 C9         -8.9472   -1.0445   59.9429 C.3     1  ZINC000650955167   -0.0800
     10 C10       -10.2472   -1.4352   59.2370 C.3     1  ZINC000650955167    0.1800
     11 H11       -10.2642   -2.5132   59.0772 H       1  ZINC000650955167    0.0900
     12 N12       -10.3266   -0.7486   57.9452 N.am    1  ZINC000650955167   -0.7300
     13 C13       -10.6339   -1.4424   56.8312 C.2     1  ZINC000650955167    0.7400
     14 O14       -10.8467   -2.6376   56.8987 O.2     1  ZINC000650955167   -0.5800
     15 N15       -10.7054   -0.8111   55.6426 N.am    1  ZINC000650955167   -0.6700
     16 C16       -10.5163    0.5658   55.1617 C.3     1  ZINC000650955167    0.1100
     17 C17       -11.4868    0.2417   54.0175 C.3     1  ZINC000650955167    0.0300
     18 N18       -11.0932    0.8010   52.7173 N.3     1  ZINC000650955167   -0.5100
     19 C19       -11.0642    2.2785   52.7630 C.3     1  ZINC000650955167    0.0400
     20 C20       -11.5045    2.7269   51.3471 C.3     1  ZINC000650955167   -0.1600
     21 C21       -12.5829    1.6658   51.0037 C.3     1  ZINC000650955167    0.0800
     22 H22       -13.5436    1.9371   51.4414 H       1  ZINC000650955167    0.0600
     23 O23       -12.7016    1.5057   49.5886 O.3     1  ZINC000650955167   -0.5600
     24 C24       -12.0285    0.3824   51.6571 C.3     1  ZINC000650955167    0.0500
     25 C25       -11.0004   -1.1975   54.2545 C.3     1  ZINC000650955167    0.1400
     26 C26       -11.4404   -1.0292   60.1044 C.3     1  ZINC000650955167   -0.1100
     27 C27       -12.1869    0.1271   59.4359 C.3     1  ZINC000650955167   -0.1400
     28 C28       -12.3850   -2.2223   60.2629 C.3     1  ZINC000650955167   -0.1500
     29 H29        -8.4151   -0.8909   64.1276 H       1  ZINC000650955167    0.1000
     30 H30        -7.3459   -0.6198   62.7306 H       1  ZINC000650955167    0.0600
     31 H31        -7.7949    0.7421   63.7852 H       1  ZINC000650955167    0.0600
     32 H32        -9.2309    2.6826   62.7066 H       1  ZINC000650955167    0.1300
     33 H33        -8.9187    4.2376   60.8240 H       1  ZINC000650955167    0.1200
     34 H34        -8.6239    3.3658   58.5415 H       1  ZINC000650955167    0.1200
     35 H35        -8.6402    0.9381   58.1355 H       1  ZINC000650955167    0.1300
     36 H36        -8.0979   -1.3129   59.3146 H       1  ZINC000650955167    0.0900
     37 H37        -8.8771   -1.5729   60.8937 H       1  ZINC000650955167    0.0800
     38 H38       -10.1581    0.2051   57.8916 H       1  ZINC000650955167    0.4000
     39 H39       -10.8938    1.3217   55.8502 H       1  ZINC000650955167    0.0700
     40 H40        -9.5006    0.7720   54.8241 H       1  ZINC000650955167    0.0900
     41 H41       -12.5359    0.4113   54.2596 H       1  ZINC000650955167    0.0900
     42 H42       -11.7635    2.6487   53.5129 H       1  ZINC000650955167    0.0500
     43 H43       -10.0554    2.6318   52.9764 H       1  ZINC000650955167    0.0900
     44 H44       -11.9352    3.7279   51.3709 H       1  ZINC000650955167    0.0800
     45 H45       -10.6716    2.6783   50.6457 H       1  ZINC000650955167    0.0900
     46 H46       -13.3296    0.8206   49.3217 H       1  ZINC000650955167    0.3800
     47 H47       -11.5020   -0.2150   50.9129 H       1  ZINC000650955167    0.0900
     48 H48       -12.8449   -0.1958   52.0900 H       1  ZINC000650955167    0.0700
     49 H49       -10.1145   -1.4573   53.6751 H       1  ZINC000650955167    0.0900
     50 H50       -11.7919   -1.9423   54.1722 H       1  ZINC000650955167    0.0800
     51 H51       -11.0857   -0.7138   61.0856 H       1  ZINC000650955167    0.0700
     52 H52       -12.5416   -0.1884   58.4547 H       1  ZINC000650955167    0.0600
     53 H53       -13.0370    0.4162   60.0539 H       1  ZINC000650955167    0.0400
     54 H54       -11.5139    0.9770   59.3230 H       1  ZINC000650955167    0.0500
     55 H55       -11.8532   -3.0461   60.7390 H       1  ZINC000650955167    0.0600
     56 H56       -13.2351   -1.9332   60.8808 H       1  ZINC000650955167    0.0600
     57 H57       -12.7397   -2.5378   59.2816 H       1  ZINC000650955167    0.0600
@<TRIPOS>BOND
     1     1     2    1
     2     1    29    1
     3     1    30    1
     4     1    31    1
     5     2     3    1
     6     3     8   ar
     7     3     4   ar
     8     4     5   ar
     9     4    32    1
    10     5     6   ar
    11     5    33    1
    12     6     7   ar
    13     6    34    1
    14     7     8   ar
    15     7    35    1
    16     8     9    1
    17     9    10    1
    18     9    36    1
    19     9    37    1
    20    10    11    1
    21    10    12    1
    22    10    26    1
    23    12    13   am
    24    12    38    1
    25    13    14    2
    26    13    15   am
    27    15    25    1
    28    15    16    1
    29    16    17    1
    30    16    39    1
    31    16    40    1
    32    17    18    1
    33    17    25    1
    34    17    41    1
    35    18    24    1
    36    18    19    1
    37    19    20    1
    38    19    42    1
    39    19    43    1
    40    20    21    1
    41    20    44    1
    42    20    45    1
    43    21    22    1
    44    21    23    1
    45    21    24    1
    46    23    46    1
    47    24    47    1
    48    24    48    1
    49    25    49    1
    50    25    50    1
    51    26    27    1
    52    26    28    1
    53    26    51    1
    54    27    52    1
    55    27    53    1
    56    27    54    1
    57    28    55    1
    58    28    56    1
    59    28    57    1
@<TRIPOS>SUBSTRUCTURE
     1 ZINC000650955167        1 TEMP              0 ****  ****    0 ROOT


##########                                Name:    ZINC000171059239
##########                DOCK_Rotatable_Bonds:                   8
##########                         Heavy_Atoms:                  25
##########                    Molecular_Weight:              333.39
##########                DOCK_Rotatable_Bonds:                   8
##########                       Formal_Charge:         1.10269e-06
##########                     HBond_Acceptors:                   5
##########                        HBond_Donors:                   4
##########                         Heavy_Atoms:                  25
##########                          Grid_Score:          -28.221455
##########                     Grid_vdw_energy:          -27.173395
##########                      Grid_es_energy:           -1.048060
##########           Internal_energy_repulsive:            7.700869

@<TRIPOS>MOLECULE
ZINC000171059239
 44 46 1 0 0
SMALL
USER_CHARGES


@<TRIPOS>ATOM
      1 N1         -0.2721    2.1956   49.3449 N.am    1  ZINC000171059239   -0.8500
      2 C2         -1.6040    2.3324   49.1915 C.2     1  ZINC000171059239    0.5600
      3 O3         -2.1031    2.2249   48.0884 O.2     1  ZINC000171059239   -0.5400
      4 C4         -2.4582    2.6135   50.3652 C.ar    1  ZINC000171059239   -0.1400
      5 C5         -1.8796    2.8438   51.6140 C.ar    1  ZINC000171059239   -0.0900
      6 C6         -2.6824    3.1061   52.7051 C.ar    1  ZINC000171059239   -0.1200
      7 C7         -4.0581    3.1403   52.5631 C.ar    1  ZINC000171059239   -0.0800
      8 C8         -4.6383    2.9123   51.3277 C.ar    1  ZINC000171059239   -0.0900
      9 C9         -6.1377    2.9513   51.1825 C.3     1  ZINC000171059239   -0.0900
     10 C10        -6.7091    1.5511   51.4146 C.3     1  ZINC000171059239    0.1400
     11 N11        -8.1034    1.6589   51.8513 N.am    1  ZINC000171059239   -0.7400
     12 C12        -8.5974    0.7851   52.7506 C.2     1  ZINC000171059239    0.7000
     13 O13        -7.8854   -0.0918   53.2006 O.2     1  ZINC000171059239   -0.5700
     14 N14        -9.8806    0.8832   53.1511 N.am    1  ZINC000171059239   -0.6800
     15 C15       -10.3923   -0.0221   54.0828 C.ar    1  ZINC000171059239    0.1700
     16 C16       -10.1076    0.1326   55.4562 C.ar    1  ZINC000171059239   -0.0600
     17 C17        -9.3100    1.1904   55.9200 C.ar    1  ZINC000171059239   -0.1100
     18 C18        -9.0561    1.3091   57.2524 C.ar    1  ZINC000171059239   -0.1100
     19 C19        -9.5768    0.3944   58.1656 C.ar    1  ZINC000171059239   -0.1200
     20 C20       -10.3540   -0.6435   57.7519 C.ar    1  ZINC000171059239   -0.1000
     21 C21       -10.6379   -0.7978   56.3838 C.ar    1  ZINC000171059239   -0.0400
     22 C22       -11.4369   -1.8569   55.9210 C.ar    1  ZINC000171059239   -0.1200
     23 C23       -11.6959   -1.9818   54.5901 C.ar    1  ZINC000171059239   -0.0900
     24 C24       -11.1846   -1.0715   53.6701 C.ar    1  ZINC000171059239   -0.1200
     25 C25        -3.8468    2.6553   50.2276 C.ar    1  ZINC000171059239   -0.0500
     26 H26         0.2882    2.0100   48.5751 H       1  ZINC000171059239    0.4100
     27 H27         0.1267    2.2865   50.2244 H       1  ZINC000171059239    0.4000
     28 H28        -0.8058    2.8165   51.7263 H       1  ZINC000171059239    0.1300
     29 H29        -2.2360    3.2845   53.6722 H       1  ZINC000171059239    0.1300
     30 H30        -4.6821    3.3457   53.4204 H       1  ZINC000171059239    0.1300
     31 H31        -6.5560    3.6407   51.9160 H       1  ZINC000171059239    0.0800
     32 H32        -6.3969    3.2877   50.1786 H       1  ZINC000171059239    0.0800
     33 H33        -6.6621    0.9811   50.4867 H       1  ZINC000171059239    0.0700
     34 H34        -6.1260    1.0435   52.1829 H       1  ZINC000171059239    0.0700
     35 H35        -8.6711    2.3593   51.4932 H       1  ZINC000171059239    0.4000
     36 H36       -10.4485    1.5828   52.7921 H       1  ZINC000171059239    0.4100
     37 H37        -8.8994    1.9063   55.2234 H       1  ZINC000171059239    0.1200
     38 H38        -8.4422    2.1240   57.6066 H       1  ZINC000171059239    0.1200
     39 H39        -9.3599    0.5104   59.2172 H       1  ZINC000171059239    0.1200
     40 H40       -10.7504   -1.3451   58.4710 H       1  ZINC000171059239    0.1300
     41 H41       -11.8451   -2.5715   56.6203 H       1  ZINC000171059239    0.1300
     42 H42       -12.3111   -2.7989   54.2431 H       1  ZINC000171059239    0.1300
     43 H43       -11.4052   -1.1929   52.6198 H       1  ZINC000171059239    0.1400
     44 H44        -4.3008    2.4778   49.2639 H       1  ZINC000171059239    0.1400
@<TRIPOS>BOND
     1     1     2   am
     2     1    26    1
     3     1    27    1
     4     2     3    2
     5     2     4    1
     6     4    25   ar
     7     4     5   ar
     8     5     6   ar
     9     5    28    1
    10     6     7   ar
    11     6    29    1
    12     7     8   ar
    13     7    30    1
    14     8     9    1
    15     8    25   ar
    16     9    10    1
    17     9    31    1
    18     9    32    1
    19    10    11    1
    20    10    33    1
    21    10    34    1
    22    11    12   am
    23    11    35    1
    24    12    13    2
    25    12    14   am
    26    14    15    1
    27    14    36    1
    28    15    24   ar
    29    15    16   ar
    30    16    21   ar
    31    16    17   ar
    32    17    18   ar
    33    17    37    1
    34    18    19   ar
    35    18    38    1
    36    19    20   ar
    37    19    39    1
    38    20    21   ar
    39    20    40    1
    40    21    22   ar
    41    22    23   ar
    42    22    41    1
    43    23    24   ar
    44    23    42    1
    45    24    43    1
    46    25    44    1
@<TRIPOS>SUBSTRUCTURE
     1 ZINC000171059239        1 TEMP              0 ****  ****    0 ROOT


##########                                Name:    ZINC000074782190
##########                DOCK_Rotatable_Bonds:                   9
##########                         Heavy_Atoms:                  25
##########                    Molecular_Weight:             341.453
##########                DOCK_Rotatable_Bonds:                   9
##########                       Formal_Charge:          -0.0200006
##########                     HBond_Acceptors:                   5
##########                        HBond_Donors:                   1
##########                         Heavy_Atoms:                  25
##########                          Grid_Score:          -28.208765
##########                     Grid_vdw_energy:          -26.368929
##########                      Grid_es_energy:           -1.839837
##########           Internal_energy_repulsive:           22.721323

@<TRIPOS>MOLECULE
ZINC000074782190
 52 53 1 0 0
SMALL
USER_CHARGES


@<TRIPOS>ATOM
      1 C1          4.1364    2.2394   51.1528 C.3     1  ZINC000074782190   -0.1100
      2 C2          3.6914    0.8981   50.6296 C.ar    1  ZINC000074782190   -0.1200
      3 C3          4.3822   -0.2450   50.9816 C.ar    1  ZINC000074782190   -0.0800
      4 C4          3.9746   -1.4761   50.5014 C.ar    1  ZINC000074782190   -0.1500
      5 C5          2.8749   -1.5661   49.6685 C.ar    1  ZINC000074782190   -0.0900
      6 C6          2.1802   -0.4258   49.3138 C.ar    1  ZINC000074782190   -0.2100
      7 C7          2.5839    0.8097   49.7984 C.ar    1  ZINC000074782190    0.1300
      8 O8          1.9023    1.9330   49.4509 O.3     1  ZINC000074782190   -0.3000
      9 C9          0.5661    2.0588   49.9416 C.3     1  ZINC000074782190    0.0700
     10 H10         0.2410    1.1058   50.3590 H       1  ZINC000074782190    0.0800
     11 C11        -0.3636    2.4563   48.7933 C.3     1  ZINC000074782190   -0.1800
     12 C12         0.5214    3.1337   51.0294 C.3     1  ZINC000074782190    0.1400
     13 N13        -0.7931    3.1199   51.6760 N.am    1  ZINC000074782190   -0.7500
     14 C14        -1.5105    4.2571   51.7686 C.2     1  ZINC000074782190    0.7100
     15 O15        -1.0668    5.2945   51.3156 O.2     1  ZINC000074782190   -0.5900
     16 N16        -2.7198    4.2444   52.3635 N.am    1  ZINC000074782190   -0.6200
     17 C17        -3.2545    2.9944   52.9093 C.3     1  ZINC000074782190    0.1800
     18 C18        -3.0984    2.9934   54.4082 C.ar    1  ZINC000074782190   -0.1600
     19 C19        -1.8521    3.1846   54.9842 C.ar    1  ZINC000074782190   -0.0500
     20 C20        -1.7560    3.1763   56.3676 C.ar    1  ZINC000074782190   -0.1800
     21 C21        -2.8978    2.9793   57.1207 C.ar    1  ZINC000074782190    0.1000
     22 N22        -4.0675    2.8006   56.5383 N.ar    1  ZINC000074782190   -0.4900
     23 C23        -4.1971    2.8076   55.2262 C.ar    1  ZINC000074782190    0.1100
     24 C24        -3.4997    5.4805   52.4642 C.3     1  ZINC000074782190    0.1300
     25 C25        -4.9923    5.1452   52.4412 C.3     1  ZINC000074782190   -0.1800
     26 C26        -3.1575    6.1942   53.7736 C.3     1  ZINC000074782190   -0.1800
     27 H27         3.6371    2.4439   52.0999 H       1  ZINC000074782190    0.0700
     28 H28         5.2157    2.2299   51.3057 H       1  ZINC000074782190    0.0600
     29 H29         3.8786    3.0147   50.4314 H       1  ZINC000074782190    0.0700
     30 H30         5.2415   -0.1772   51.6322 H       1  ZINC000074782190    0.1300
     31 H31         4.5165   -2.3686   50.7772 H       1  ZINC000074782190    0.1200
     32 H32         2.5587   -2.5288   49.2945 H       1  ZINC000074782190    0.1200
     33 H33         1.3214   -0.4966   48.6628 H       1  ZINC000074782190    0.1300
     34 H34        -0.0385    3.4093   48.3759 H       1  ZINC000074782190    0.0700
     35 H35        -0.3318    1.6904   48.0183 H       1  ZINC000074782190    0.0700
     36 H36        -1.3828    2.5523   49.1676 H       1  ZINC000074782190    0.0800
     37 H37         1.2936    2.9317   51.7717 H       1  ZINC000074782190    0.0800
     38 H38         0.6956    4.1119   50.5810 H       1  ZINC000074782190    0.0900
     39 H39        -1.1471    2.2922   52.0373 H       1  ZINC000074782190    0.4100
     40 H40        -4.3107    2.9089   52.6540 H       1  ZINC000074782190    0.0900
     41 H41        -2.7091    2.1506   52.4867 H       1  ZINC000074782190    0.1000
     42 H42        -0.9766    3.3359   54.3702 H       1  ZINC000074782190    0.1400
     43 H43        -0.8009    3.3217   56.8503 H       1  ZINC000074782190    0.1300
     44 H44        -2.8313    2.9711   58.1986 H       1  ZINC000074782190    0.1600
     45 H45        -5.1716    2.6578   54.7853 H       1  ZINC000074782190    0.1500
     46 H46        -3.2603    6.1306   51.6227 H       1  ZINC000074782190    0.1000
     47 H47        -5.2493    4.5704   53.3309 H       1  ZINC000074782190    0.0600
     48 H48        -5.5719    6.0682   52.4249 H       1  ZINC000074782190    0.0700
     49 H49        -5.2190    4.5580   51.5512 H       1  ZINC000074782190    0.0600
     50 H50        -2.1226    6.5351   53.7418 H       1  ZINC000074782190    0.0700
     51 H51        -3.8185    7.0510   53.9039 H       1  ZINC000074782190    0.0700
     52 H52        -3.2875    5.5047   54.6079 H       1  ZINC000074782190    0.0700
@<TRIPOS>BOND
     1     1     2    1
     2     1    27    1
     3     1    28    1
     4     1    29    1
     5     2     7   ar
     6     2     3   ar
     7     3     4   ar
     8     3    30    1
     9     4     5   ar
    10     4    31    1
    11     5     6   ar
    12     5    32    1
    13     6     7   ar
    14     6    33    1
    15     7     8    1
    16     8     9    1
    17     9    10    1
    18     9    11    1
    19     9    12    1
    20    11    34    1
    21    11    35    1
    22    11    36    1
    23    12    13    1
    24    12    37    1
    25    12    38    1
    26    13    14   am
    27    13    39    1
    28    14    15    2
    29    14    16   am
    30    16    17    1
    31    16    24    1
    32    17    18    1
    33    17    40    1
    34    17    41    1
    35    18    23   ar
    36    18    19   ar
    37    19    20   ar
    38    19    42    1
    39    20    21   ar
    40    20    43    1
    41    21    22   ar
    42    21    44    1
    43    22    23   ar
    44    23    45    1
    45    24    25    1
    46    24    26    1
    47    24    46    1
    48    25    47    1
    49    25    48    1
    50    25    49    1
    51    26    50    1
    52    26    51    1
    53    26    52    1
@<TRIPOS>SUBSTRUCTURE
     1 ZINC000074782190        1 TEMP              0 ****  ****    0 ROOT


##########                                Name:    ZINC000867639366
##########                DOCK_Rotatable_Bonds:                   6
##########                         Heavy_Atoms:                  25
##########                    Molecular_Weight:             388.509
##########                DOCK_Rotatable_Bonds:                   6
##########                       Formal_Charge:          0.00999961
##########                     HBond_Acceptors:                   9
##########                        HBond_Donors:                   1
##########                         Heavy_Atoms:                  25
##########                          Grid_Score:          -28.164637
##########                     Grid_vdw_energy:          -26.554585
##########                      Grid_es_energy:           -1.610052
##########           Internal_energy_repulsive:           40.030899

@<TRIPOS>MOLECULE
ZINC000867639366
 49 51 1 0 0
SMALL
USER_CHARGES


@<TRIPOS>ATOM
      1 C1        -12.9898    4.7590   51.3334 C.3     1  ZINC000867639366    0.0300
      2 O2        -12.9592    5.3632   50.0389 O.3     1  ZINC000867639366   -0.3800
      3 C3        -11.6961    5.2589   49.3785 C.3     1  ZINC000867639366    0.0800
      4 H4        -10.9024    5.1813   50.1217 H       1  ZINC000867639366    0.0800
      5 C5        -11.4672    6.5012   48.5146 C.3     1  ZINC000867639366   -0.1400
      6 C6        -12.5993    6.6297   47.4928 C.3     1  ZINC000867639366   -0.1200
      7 C7        -12.5999    5.3994   46.5800 C.3     1  ZINC000867639366    0.1500
      8 H8        -11.6831    5.3811   45.9908 H       1  ZINC000867639366    0.0800
      9 C9        -13.8095    5.4552   45.6447 C.3     1  ZINC000867639366   -0.1900
     10 N10       -12.6738    4.1919   47.4139 N.am    1  ZINC000867639366   -0.9800
     11 S11       -13.8472    3.0539   47.1486 S.o2    1  ZINC000867639366    2.6900
     12 O12       -13.5494    1.9625   48.0086 O.2     1  ZINC000867639366   -0.9500
     13 O13       -15.0887    3.7448   47.1712 O.2     1  ZINC000867639366   -0.9400
     14 C14       -13.6371    2.4619   45.5024 C.ar    1  ZINC000867639366   -0.6300
     15 C15       -12.3910    2.5068   44.9056 C.ar    1  ZINC000867639366   -0.0500
     16 C16       -12.2261    2.0423   43.6141 C.ar    1  ZINC000867639366   -0.0400
     17 C17       -13.3071    1.5325   42.9196 C.ar    1  ZINC000867639366   -0.6300
     18 S18       -13.0971    0.9410   41.2732 S.o2    1  ZINC000867639366    2.7000
     19 O19       -11.7005    0.7549   41.0888 O.2     1  ZINC000867639366   -0.9400
     20 O20       -14.0498   -0.0983   41.0957 O.2     1  ZINC000867639366   -0.9500
     21 N21       -13.5447    2.1652   40.2517 N.am    1  ZINC000867639366   -1.0800
     22 C22       -12.8423    3.4499   40.2961 C.3     1  ZINC000867639366    0.0800
     23 C23       -11.5107    3.5533   39.5496 C.3     1  ZINC000867639366   -0.1800
     24 C24       -12.7542    4.2524   38.9963 C.3     1  ZINC000867639366   -0.1900
     25 C25       -14.5529    1.4864   43.5169 C.ar    1  ZINC000867639366   -0.0400
     26 C26       -14.7170    1.9473   44.8098 C.ar    1  ZINC000867639366   -0.0400
     27 C27       -11.6862    4.0127   48.4878 C.3     1  ZINC000867639366    0.1200
     28 H28       -12.7603    3.6972   51.2443 H       1  ZINC000867639366    0.0400
     29 H29       -12.2507    5.2379   51.9756 H       1  ZINC000867639366    0.0400
     30 H30       -13.9821    4.8810   51.7678 H       1  ZINC000867639366    0.0900
     31 H31       -11.4491    7.3869   49.1497 H       1  ZINC000867639366    0.0700
     32 H32       -10.5151    6.4098   47.9921 H       1  ZINC000867639366    0.0700
     33 H33       -13.5542    6.6963   48.0141 H       1  ZINC000867639366    0.0800
     34 H34       -12.4482    7.5274   46.8932 H       1  ZINC000867639366    0.0800
     35 H35       -13.6873    6.2790   44.9414 H       1  ZINC000867639366    0.0700
     36 H36       -13.8876    4.5170   45.0954 H       1  ZINC000867639366    0.0600
     37 H37       -14.7153    5.6094   46.2310 H       1  ZINC000867639366    0.1000
     38 H38       -11.5464    2.9052   45.4481 H       1  ZINC000867639366    0.1600
     39 H39       -11.2527    2.0781   43.1475 H       1  ZINC000867639366    0.1500
     40 H40       -14.2720    2.0315   39.6239 H       1  ZINC000867639366    0.4200
     41 H41       -12.9426    4.0087   41.2267 H       1  ZINC000867639366    0.1400
     42 H42       -10.7347    4.1800   39.9891 H       1  ZINC000867639366    0.1100
     43 H43       -11.1574    2.6653   39.0254 H       1  ZINC000867639366    0.1000
     44 H44       -13.2189    3.8242   38.1082 H       1  ZINC000867639366    0.1000
     45 H45       -12.7963    5.3388   39.0718 H       1  ZINC000867639366    0.1000
     46 H46       -15.3974    1.0877   42.9745 H       1  ZINC000867639366    0.1500
     47 H47       -15.6903    1.9112   45.2765 H       1  ZINC000867639366    0.1500
     48 H48       -10.6948    3.8812   48.0542 H       1  ZINC000867639366    0.0900
     49 H49       -11.9468    3.1365   49.0814 H       1  ZINC000867639366    0.1000
@<TRIPOS>BOND
     1     1     2    1
     2     1    28    1
     3     1    29    1
     4     1    30    1
     5     2     3    1
     6     3     4    1
     7     3    27    1
     8     3     5    1
     9     5     6    1
    10     5    31    1
    11     5    32    1
    12     6     7    1
    13     6    33    1
    14     6    34    1
    15     7     8    1
    16     7     9    1
    17     7    10    1
    18     9    35    1
    19     9    36    1
    20     9    37    1
    21    10    11   am
    22    10    27    1
    23    11    12    2
    24    11    13    2
    25    11    14    1
    26    14    26   ar
    27    14    15   ar
    28    15    16   ar
    29    15    38    1
    30    16    17   ar
    31    16    39    1
    32    17    18    1
    33    17    25   ar
    34    18    19    2
    35    18    20    2
    36    18    21   am
    37    21    22    1
    38    21    40    1
    39    22    24    1
    40    22    23    1
    41    22    41    1
    42    23    24    1
    43    23    42    1
    44    23    43    1
    45    24    44    1
    46    24    45    1
    47    25    26   ar
    48    25    46    1
    49    26    47    1
    50    27    48    1
    51    27    49    1
@<TRIPOS>SUBSTRUCTURE
     1 ZINC000867639366        1 TEMP              0 ****  ****    0 ROOT


##########                                Name:    ZINC000822206030
##########                DOCK_Rotatable_Bonds:                   7
##########                         Heavy_Atoms:                  29
##########                    Molecular_Weight:             391.448
##########                DOCK_Rotatable_Bonds:                   7
##########                       Formal_Charge:         -0.00999995
##########                     HBond_Acceptors:                   7
##########                        HBond_Donors:                   1
##########                         Heavy_Atoms:                  29
##########                          Grid_Score:          -28.145266
##########                     Grid_vdw_energy:          -27.624205
##########                      Grid_es_energy:           -0.521061
##########           Internal_energy_repulsive:           21.803152

@<TRIPOS>MOLECULE
ZINC000822206030
 51 55 1 0 0
SMALL
USER_CHARGES


@<TRIPOS>ATOM
      1 C1         -8.2328   -0.3910   59.7932 C.3     1  ZINC000822206030   -0.1300
      2 C2         -8.9871   -0.0658   61.0567 C.ar    1  ZINC000822206030   -0.0400
      3 C3         -8.3523   -0.1462   62.2804 C.ar    1  ZINC000822206030   -0.1500
      4 C4         -9.0452    0.1520   63.4419 C.ar    1  ZINC000822206030    0.1100
      5 F5         -8.4226    0.0724   64.6382 F       1  ZINC000822206030   -0.1400
      6 C6        -10.3751    0.5321   63.3787 C.ar    1  ZINC000822206030   -0.1500
      7 C7        -11.0137    0.6136   62.1566 C.ar    1  ZINC000822206030   -0.0800
      8 C8        -10.3194    0.3202   60.9907 C.ar    1  ZINC000822206030    0.1100
      9 N9        -10.9648    0.4027   59.7507 N.am    1  ZINC000822206030   -0.5600
     10 C10       -11.1254    1.7021   59.0935 C.3     1  ZINC000822206030    0.1500
     11 C11        -9.8422    2.0747   58.3969 C.ar    1  ZINC000822206030   -0.0900
     12 C12        -9.0000    3.0160   58.9609 C.ar    1  ZINC000822206030   -0.1000
     13 C13        -7.8233    3.3606   58.3273 C.ar    1  ZINC000822206030   -0.0800
     14 C14        -7.4843    2.7587   57.1177 C.ar    1  ZINC000822206030   -0.0100
     15 C15        -6.2196    3.1250   56.4318 C.2     1  ZINC000822206030    0.2200
     16 N16        -5.7762    2.6433   55.2879 N.2     1  ZINC000822206030   -0.2900
     17 N17        -4.6478    3.2106   55.0319 N.pl3   1  ZINC000822206030   -0.2300
     18 N18        -4.3622    4.0363   55.9772 N.2     1  ZINC000822206030   -0.0500
     19 N19        -5.3092    4.0144   56.8527 N.2     1  ZINC000822206030   -0.2700
     20 C20        -8.3360    1.8114   56.5540 C.ar    1  ZINC000822206030   -0.0800
     21 C21        -9.5079    1.4702   57.1986 C.ar    1  ZINC000822206030   -0.0900
     22 C22       -11.4383   -0.7134   59.1619 C.2     1  ZINC000822206030    0.5500
     23 O23       -11.9986   -0.6418   58.0886 O.2     1  ZINC000822206030   -0.5000
     24 C24       -11.2714   -2.0503   59.8370 C.3     1  ZINC000822206030   -0.1900
     25 H25       -10.3855   -2.1532   60.4636 H       1  ZINC000822206030    0.1200
     26 C26       -11.7467   -3.2900   59.0766 C.3     1  ZINC000822206030   -0.1400
     27 C27       -12.5402   -2.7802   60.2822 C.3     1  ZINC000822206030   -0.0900
     28 H28       -12.4891   -3.3635   61.2016 H       1  ZINC000822206030    0.1100
     29 C29       -13.8817   -2.0976   60.0077 C.3     1  ZINC000822206030   -0.1100
     30 C30       -15.1485   -2.8130   60.4813 C.3     1  ZINC000822206030   -0.2000
     31 C31       -14.6598   -1.5596   61.2102 C.3     1  ZINC000822206030   -0.1200
     32 H32        -7.7621    0.5135   59.4081 H       1  ZINC000822206030    0.0900
     33 H33        -7.4665   -1.1356   60.0089 H       1  ZINC000822206030    0.0700
     34 H34        -8.9241   -0.7861   59.0488 H       1  ZINC000822206030    0.0700
     35 H35        -7.3149   -0.4420   62.3319 H       1  ZINC000822206030    0.1400
     36 H36       -10.9136    0.7646   64.2856 H       1  ZINC000822206030    0.1400
     37 H37       -12.0512    0.9097   62.1077 H       1  ZINC000822206030    0.1400
     38 H38       -11.9317    1.6423   58.3624 H       1  ZINC000822206030    0.1000
     39 H39       -11.3670    2.4592   59.8396 H       1  ZINC000822206030    0.0900
     40 H40        -9.2640    3.4823   59.8987 H       1  ZINC000822206030    0.1300
     41 H41        -7.1666    4.0958   58.7684 H       1  ZINC000822206030    0.1400
     42 H42        -4.0994    3.0416   54.2497 H       1  ZINC000822206030    0.4800
     43 H43        -8.0781    1.3420   55.6161 H       1  ZINC000822206030    0.1300
     44 H44       -10.1689    0.7359   56.7626 H       1  ZINC000822206030    0.1400
     45 H45       -12.1801   -3.1385   58.0881 H       1  ZINC000822206030    0.1000
     46 H46       -11.1737   -4.2085   59.2033 H       1  ZINC000822206030    0.1000
     47 H47       -13.9402   -1.5331   59.0770 H       1  ZINC000822206030    0.1000
     48 H48       -16.0407   -2.7195   59.8622 H       1  ZINC000822206030    0.0900
     49 H49       -15.0262   -3.7700   60.9885 H       1  ZINC000822206030    0.0900
     50 H50       -14.2162   -1.6922   62.1969 H       1  ZINC000822206030    0.0800
     51 H51       -15.2306   -0.6416   61.0705 H       1  ZINC000822206030    0.0900
@<TRIPOS>BOND
     1     1     2    1
     2     1    32    1
     3     1    33    1
     4     1    34    1
     5     2     8   ar
     6     2     3   ar
     7     3     4   ar
     8     3    35    1
     9     4     5    1
    10     4     6   ar
    11     6     7   ar
    12     6    36    1
    13     7     8   ar
    14     7    37    1
    15     8     9    1
    16     9    10    1
    17     9    22   am
    18    10    11    1
    19    10    38    1
    20    10    39    1
    21    11    21   ar
    22    11    12   ar
    23    12    13   ar
    24    12    40    1
    25    13    14   ar
    26    13    41    1
    27    14    15    1
    28    14    20   ar
    29    15    19    1
    30    15    16    2
    31    16    17    1
    32    17    18    1
    33    17    42    1
    34    18    19    2
    35    20    21   ar
    36    20    43    1
    37    21    44    1
    38    22    23    2
    39    22    24    1
    40    24    25    1
    41    24    27    1
    42    24    26    1
    43    26    27    1
    44    26    45    1
    45    26    46    1
    46    27    28    1
    47    27    29    1
    48    29    31    1
    49    29    30    1
    50    29    47    1
    51    30    31    1
    52    30    48    1
    53    30    49    1
    54    31    50    1
    55    31    51    1
@<TRIPOS>SUBSTRUCTURE
     1 ZINC000822206030        1 TEMP              0 ****  ****    0 ROOT


##########                                Name:    ZINC001408567397
##########                DOCK_Rotatable_Bonds:                   9
##########                         Heavy_Atoms:                  24
##########                    Molecular_Weight:             336.434
##########                DOCK_Rotatable_Bonds:                   9
##########                       Formal_Charge:          -0.0199996
##########                     HBond_Acceptors:                   7
##########                        HBond_Donors:                   2
##########                         Heavy_Atoms:                  24
##########                          Grid_Score:          -28.140291
##########                     Grid_vdw_energy:          -27.207821
##########                      Grid_es_energy:           -0.932470
##########           Internal_energy_repulsive:           18.281496

@<TRIPOS>MOLECULE
ZINC001408567397
 52 53 1 0 0
SMALL
USER_CHARGES


@<TRIPOS>ATOM
      1 C1         -9.2479    0.5865   52.9603 C.3     1  ZINC001408567397   -0.0800
      2 C2         -7.9487    0.6989   52.2047 C.2     1  ZINC001408567397    0.0900
      3 N3         -7.3064   -0.2867   51.6323 N.2     1  ZINC001408567397   -0.2900
      4 N4         -6.1486    0.2318   51.0382 N.pl3   1  ZINC001408567397   -0.4700
      5 C5         -6.1198    1.5602   51.2743 C.2     1  ZINC001408567397    0.1100
      6 C6         -5.0520    2.5207   50.8184 C.3     1  ZINC001408567397   -0.1000
      7 C7         -7.2246    1.8760   51.9891 C.2     1  ZINC001408567397   -0.2200
      8 C8         -7.6032    3.2514   52.4746 C.3     1  ZINC001408567397   -0.0600
      9 C9         -6.8514    3.5608   53.7435 C.2     1  ZINC001408567397    0.5100
     10 O10        -6.9116    4.6707   54.2287 O.2     1  ZINC001408567397   -0.5300
     11 N11        -6.1120    2.6042   54.3391 N.am    1  ZINC001408567397   -0.7300
     12 C12        -5.3825    2.9045   55.5736 C.3     1  ZINC001408567397    0.1100
     13 C13        -4.1030    3.6722   55.2359 C.3     1  ZINC001408567397    0.1000
     14 N14        -3.2172    3.6823   56.4028 N.am    1  ZINC001408567397   -0.6200
     15 C15        -3.3135    4.7640   57.3861 C.3     1  ZINC001408567397    0.0700
     16 C16        -2.3138    2.6965   56.5717 C.2     1  ZINC001408567397    0.5100
     17 O17        -2.2331    1.8019   55.7568 O.2     1  ZINC001408567397   -0.5300
     18 C18        -1.4039    2.7060   57.7729 C.3     1  ZINC001408567397   -0.1300
     19 C19        -0.1586    3.5391   57.4628 C.3     1  ZINC001408567397   -0.1100
     20 H20        -0.4539    4.5611   57.2253 H       1  ZINC001408567397    0.0900
     21 C21         0.7701    3.5445   58.6808 C.3     1  ZINC001408567397   -0.1200
     22 C22         2.0470    4.3154   58.3322 C.3     1  ZINC001408567397   -0.1600
     23 C23         2.7016    3.6751   57.1054 C.3     1  ZINC001408567397    0.0600
     24 O24         1.7742    3.6742   56.0182 O.3     1  ZINC001408567397   -0.3800
     25 C25         0.5804    2.9296   56.2685 C.3     1  ZINC001408567397    0.0600
     26 H26       -10.0817    0.7202   52.2711 H       1  ZINC001408567397    0.0800
     27 H27        -9.3143   -0.3975   53.4244 H       1  ZINC001408567397    0.0700
     28 H28        -9.2872    1.3556   53.7317 H       1  ZINC001408567397    0.0800
     29 H29        -5.4847   -0.2746   50.5444 H       1  ZINC001408567397    0.4400
     30 H30        -5.3150    2.9179   49.8381 H       1  ZINC001408567397    0.0800
     31 H31        -4.9712    3.3401   51.5327 H       1  ZINC001408567397    0.0900
     32 H32        -4.0971    1.9989   50.7547 H       1  ZINC001408567397    0.0700
     33 H33        -7.3490    3.9884   51.7129 H       1  ZINC001408567397    0.1000
     34 H34        -8.6750    3.2856   52.6699 H       1  ZINC001408567397    0.1000
     35 H35        -6.0628    1.7169   53.9504 H       1  ZINC001408567397    0.4000
     36 H36        -6.0088    3.5117   56.2272 H       1  ZINC001408567397    0.0700
     37 H37        -5.1252    1.9737   56.0791 H       1  ZINC001408567397    0.0700
     38 H38        -3.5980    3.1871   54.4006 H       1  ZINC001408567397    0.0800
     39 H39        -4.3553    4.6967   54.9625 H       1  ZINC001408567397    0.0900
     40 H40        -4.0296    4.4887   58.1602 H       1  ZINC001408567397    0.0600
     41 H41        -2.3361    4.9319   57.8385 H       1  ZINC001408567397    0.0800
     42 H42        -3.6462    5.6764   56.8912 H       1  ZINC001408567397    0.0800
     43 H43        -1.9292    3.1406   58.6233 H       1  ZINC001408567397    0.1000
     44 H44        -1.1074    1.6848   58.0122 H       1  ZINC001408567397    0.1000
     45 H45         0.2692    4.0287   59.5191 H       1  ZINC001408567397    0.0700
     46 H46         1.0251    2.5194   58.9496 H       1  ZINC001408567397    0.0600
     47 H47         1.7971    5.3533   58.1117 H       1  ZINC001408567397    0.0700
     48 H48         2.7372    4.2772   59.1750 H       1  ZINC001408567397    0.0700
     49 H49         3.5877    4.2454   56.8269 H       1  ZINC001408567397    0.0900
     50 H50         2.9878    2.6497   57.3398 H       1  ZINC001408567397    0.0500
     51 H51         0.8379    1.8942   56.4921 H       1  ZINC001408567397    0.0400
     52 H52        -0.0603    2.9628   55.3873 H       1  ZINC001408567397    0.1100
@<TRIPOS>BOND
     1     1     2    1
     2     1    26    1
     3     1    27    1
     4     1    28    1
     5     2     7    1
     6     2     3    2
     7     3     4    1
     8     4     5    1
     9     4    29    1
    10     5     6    1
    11     5     7    2
    12     6    30    1
    13     6    31    1
    14     6    32    1
    15     7     8    1
    16     8     9    1
    17     8    33    1
    18     8    34    1
    19     9    10    2
    20     9    11   am
    21    11    12    1
    22    11    35    1
    23    12    13    1
    24    12    36    1
    25    12    37    1
    26    13    14    1
    27    13    38    1
    28    13    39    1
    29    14    15    1
    30    14    16   am
    31    15    40    1
    32    15    41    1
    33    15    42    1
    34    16    17    2
    35    16    18    1
    36    18    19    1
    37    18    43    1
    38    18    44    1
    39    19    20    1
    40    19    25    1
    41    19    21    1
    42    21    22    1
    43    21    45    1
    44    21    46    1
    45    22    23    1
    46    22    47    1
    47    22    48    1
    48    23    24    1
    49    23    49    1
    50    23    50    1
    51    24    25    1
    52    25    51    1
    53    25    52    1
@<TRIPOS>SUBSTRUCTURE
     1 ZINC001408567397        1 TEMP              0 ****  ****    0 ROOT


##########                                Name:    ZINC000536173632
##########                DOCK_Rotatable_Bonds:                   7
##########                         Heavy_Atoms:                  29
##########                    Molecular_Weight:             407.389
##########                DOCK_Rotatable_Bonds:                   7
##########                       Formal_Charge:        -2.98023e-07
##########                     HBond_Acceptors:                   8
##########                        HBond_Donors:                   0
##########                         Heavy_Atoms:                  29
##########                          Grid_Score:          -28.111584
##########                     Grid_vdw_energy:          -26.718723
##########                      Grid_es_energy:           -1.392861
##########           Internal_energy_repulsive:           13.315168

@<TRIPOS>MOLECULE
ZINC000536173632
 49 51 1 0 0
SMALL
USER_CHARGES


@<TRIPOS>ATOM
      1 C1         -5.9466    0.8388   50.8381 C.3     1  ZINC000536173632    0.0400
      2 O2         -6.6006    1.2378   52.0716 O.3     1  ZINC000536173632   -0.3500
      3 C3         -6.3537    2.4840   52.5193 C.2     1  ZINC000536173632    0.5100
      4 O4         -5.6288    3.2245   51.8855 O.2     1  ZINC000536173632   -0.5000
      5 C5         -6.9646    2.9502   53.7809 C.ar    1  ZINC000536173632   -0.1300
      6 C6         -6.7643    4.2621   54.2142 C.ar    1  ZINC000536173632   -0.0600
      7 C7         -7.3376    4.6910   55.3935 C.ar    1  ZINC000536173632   -0.1300
      8 C8         -8.1091    3.8240   56.1465 C.ar    1  ZINC000536173632   -0.0700
      9 C9         -8.3118    2.5222   55.7230 C.ar    1  ZINC000536173632   -0.0800
     10 C10        -9.1539    1.5850   56.5499 C.3     1  ZINC000536173632   -0.1000
     11 C11        -8.3658    1.1287   57.7506 C.2     1  ZINC000536173632    0.5200
     12 O12        -7.2083    1.4668   57.8806 O.2     1  ZINC000536173632   -0.5200
     13 N13        -8.9472    0.3447   58.6800 N.am    1  ZINC000536173632   -0.6200
     14 C14        -8.1981   -0.1135   59.8608 C.3     1  ZINC000536173632    0.0700
     15 C15        -8.3700   -1.6319   59.9833 C.3     1  ZINC000536173632    0.0500
     16 O16        -9.7630   -1.9518   59.9518 O.3     1  ZINC000536173632   -0.3700
     17 C17       -10.4173   -1.5982   58.7308 C.3     1  ZINC000536173632    0.1200
     18 H18        -9.9193   -2.0899   57.8952 H       1  ZINC000536173632    0.0800
     19 C19       -11.8581   -2.0364   58.7867 C.ar    1  ZINC000536173632   -0.0900
     20 C20       -12.3678   -2.8626   57.8030 C.ar    1  ZINC000536173632   -0.0600
     21 C21       -13.6897   -3.2645   57.8542 C.ar    1  ZINC000536173632   -0.1200
     22 C22       -14.5013   -2.8404   58.8895 C.ar    1  ZINC000536173632   -0.0700
     23 C23       -13.9912   -2.0147   59.8741 C.ar    1  ZINC000536173632   -0.1800
     24 C24       -14.8762   -1.5519   61.0027 C.3     1  ZINC000536173632    0.5100
     25 F25       -16.2031   -1.4979   60.5626 F       1  ZINC000536173632   -0.1800
     26 F26       -14.7755   -2.4483   62.0720 F       1  ZINC000536173632   -0.1800
     27 F27       -14.4716   -0.2798   61.4210 F       1  ZINC000536173632   -0.1800
     28 C28       -12.6686   -1.6164   59.8252 C.ar    1  ZINC000536173632   -0.0500
     29 C29       -10.3518   -0.0735   58.5470 C.3     1  ZINC000536173632    0.0900
     30 C30        -7.7496    2.0823   54.5428 C.ar    1  ZINC000536173632   -0.0400
     31 H31        -6.2531    1.5055   50.0322 H       1  ZINC000536173632    0.0600
     32 H32        -4.8654    0.8955   50.9653 H       1  ZINC000536173632    0.0600
     33 H33        -6.2301   -0.1843   50.5910 H       1  ZINC000536173632    0.1000
     34 H34        -6.1615    4.9397   53.6277 H       1  ZINC000536173632    0.1400
     35 H35        -7.1834    5.7057   55.7298 H       1  ZINC000536173632    0.1400
     36 H36        -8.5552    4.1646   57.0693 H       1  ZINC000536173632    0.1300
     37 H37       -10.0543    2.1023   56.8814 H       1  ZINC000536173632    0.1100
     38 H38        -9.4325    0.7201   55.9479 H       1  ZINC000536173632    0.1100
     39 H39        -7.1418    0.1279   59.7417 H       1  ZINC000536173632    0.1000
     40 H40        -8.5880    0.3735   60.7545 H       1  ZINC000536173632    0.0800
     41 H41        -7.8646   -2.1237   59.1522 H       1  ZINC000536173632    0.0600
     42 H42        -7.9395   -1.9721   60.9250 H       1  ZINC000536173632    0.1100
     43 H43       -11.7337   -3.1940   56.9941 H       1  ZINC000536173632    0.1400
     44 H44       -14.0882   -3.9095   57.0852 H       1  ZINC000536173632    0.1400
     45 H45       -15.5341   -3.1538   58.9292 H       1  ZINC000536173632    0.1400
     46 H46       -12.2700   -0.9714   60.5943 H       1  ZINC000536173632    0.1400
     47 H47       -10.9595    0.4146   59.3089 H       1  ZINC000536173632    0.0800
     48 H48       -10.7205    0.1930   57.5564 H       1  ZINC000536173632    0.1100
     49 H49        -7.9089    1.0662   54.2132 H       1  ZINC000536173632    0.1400
@<TRIPOS>BOND
     1     1     2    1
     2     1    31    1
     3     1    32    1
     4     1    33    1
     5     2     3    1
     6     3     4    2
     7     3     5    1
     8     5    30   ar
     9     5     6   ar
    10     6     7   ar
    11     6    34    1
    12     7     8   ar
    13     7    35    1
    14     8     9   ar
    15     8    36    1
    16     9    10    1
    17     9    30   ar
    18    10    11    1
    19    10    37    1
    20    10    38    1
    21    11    12    2
    22    11    13   am
    23    13    29    1
    24    13    14    1
    25    14    15    1
    26    14    39    1
    27    14    40    1
    28    15    16    1
    29    15    41    1
    30    15    42    1
    31    16    17    1
    32    17    18    1
    33    17    19    1
    34    17    29    1
    35    19    28   ar
    36    19    20   ar
    37    20    21   ar
    38    20    43    1
    39    21    22   ar
    40    21    44    1
    41    22    23   ar
    42    22    45    1
    43    23    24    1
    44    23    28   ar
    45    24    25    1
    46    24    26    1
    47    24    27    1
    48    28    46    1
    49    29    47    1
    50    29    48    1
    51    30    49    1
@<TRIPOS>SUBSTRUCTURE
     1 ZINC000536173632        1 TEMP              0 ****  ****    0 ROOT


##########                                Name:    ZINC000151991096
##########                DOCK_Rotatable_Bonds:                   8
##########                         Heavy_Atoms:                  27
##########                    Molecular_Weight:             364.444
##########                DOCK_Rotatable_Bonds:                   8
##########                       Formal_Charge:          -0.0200004
##########                     HBond_Acceptors:                   5
##########                        HBond_Donors:                   1
##########                         Heavy_Atoms:                  27
##########                          Grid_Score:          -28.094217
##########                     Grid_vdw_energy:          -27.192034
##########                      Grid_es_energy:           -0.902183
##########           Internal_energy_repulsive:           15.944793

@<TRIPOS>MOLECULE
ZINC000151991096
 51 53 1 0 0
SMALL
USER_CHARGES


@<TRIPOS>ATOM
      1 C1        -11.0533    3.2483   51.1206 C.3     1  ZINC000151991096   -0.1500
      2 C2         -9.5816    3.2223   51.5387 C.3     1  ZINC000151991096   -0.1300
      3 C3         -9.1789    1.7908   51.8984 C.3     1  ZINC000151991096    0.1400
      4 H4         -9.4901    1.1147   51.1019 H       1  ZINC000151991096    0.1000
      5 N5         -9.8292    1.4009   53.1518 N.am    1  ZINC000151991096   -0.7200
      6 C6        -10.0361    0.0978   53.4268 C.2     1  ZINC000151991096    0.5600
      7 O7         -9.6845   -0.7541   52.6338 O.2     1  ZINC000151991096   -0.5300
      8 C8        -10.6898   -0.2950   54.6907 C.ar    1  ZINC000151991096   -0.1700
      9 C9        -10.5469    0.5010   55.8301 C.ar    1  ZINC000151991096   -0.0500
     10 C10       -11.1586    0.1314   57.0071 C.ar    1  ZINC000151991096   -0.1600
     11 C11       -11.9174   -1.0319   57.0626 C.ar    1  ZINC000151991096    0.1600
     12 O12       -12.5191   -1.3927   58.2243 O.3     1  ZINC000151991096   -0.3000
     13 C13       -11.9363   -2.4792   58.9467 C.3     1  ZINC000151991096    0.0900
     14 C14       -10.7143   -1.9945   59.6834 C.ar    1  ZINC000151991096   -0.0500
     15 C15        -9.4590   -2.4043   59.2851 C.ar    1  ZINC000151991096   -0.1000
     16 C16        -8.3359   -1.9601   59.9606 C.ar    1  ZINC000151991096   -0.0900
     17 C17        -8.4633   -1.1034   61.0393 C.ar    1  ZINC000151991096   -0.1200
     18 C18        -9.7129   -0.6856   61.4485 C.ar    1  ZINC000151991096   -0.0700
     19 C19       -10.8499   -1.1248   60.7678 C.ar    1  ZINC000151991096   -0.0200
     20 C20       -12.1501   -0.6952   61.1870 C.1     1  ZINC000151991096    0.2400
     21 N21       -13.1814   -0.3544   61.5196 N.1     1  ZINC000151991096   -0.4000
     22 C22       -12.0619   -1.8265   55.9313 C.ar    1  ZINC000151991096   -0.2200
     23 C23       -11.4578   -1.4609   54.7492 C.ar    1  ZINC000151991096   -0.0100
     24 C24        -7.6601    1.7153   52.0667 C.3     1  ZINC000151991096    0.0700
     25 H25        -7.3529    0.6768   52.1899 H       1  ZINC000151991096    0.1000
     26 C26        -7.2282    2.5388   53.2991 C.3     1  ZINC000151991096   -0.1500
     27 C27        -5.9126    3.2020   52.8078 C.3     1  ZINC000151991096   -0.1600
     28 C28        -6.2374    3.4250   51.3093 C.3     1  ZINC000151991096    0.0500
     29 O29        -7.0154    2.2799   50.9190 O.3     1  ZINC000151991096   -0.3700
     30 H30       -11.6715    2.8932   51.9450 H       1  ZINC000151991096    0.0500
     31 H31       -11.3401    4.2681   50.8643 H       1  ZINC000151991096    0.0500
     32 H32       -11.1964    2.6021   50.2545 H       1  ZINC000151991096    0.0600
     33 H33        -8.9634    3.5773   50.7142 H       1  ZINC000151991096    0.0700
     34 H34        -9.4385    3.8685   52.4047 H       1  ZINC000151991096    0.0700
     35 H35       -10.1109    2.0807   53.7840 H       1  ZINC000151991096    0.4000
     36 H36        -9.9572    1.4048   55.7878 H       1  ZINC000151991096    0.1300
     37 H37       -11.0484    0.7458   57.8884 H       1  ZINC000151991096    0.1400
     38 H38       -12.6603   -2.8701   59.6616 H       1  ZINC000151991096    0.0800
     39 H39       -11.6515   -3.2675   58.2499 H       1  ZINC000151991096    0.0800
     40 H40        -9.3525   -3.0735   58.4442 H       1  ZINC000151991096    0.1400
     41 H41        -7.3554   -2.2842   59.6443 H       1  ZINC000151991096    0.1400
     42 H42        -7.5826   -0.7613   61.5625 H       1  ZINC000151991096    0.1400
     43 H43        -9.8109   -0.0170   62.2911 H       1  ZINC000151991096    0.1400
     44 H44       -12.6521   -2.7298   55.9786 H       1  ZINC000151991096    0.1300
     45 H45       -11.5708   -2.0786   53.8705 H       1  ZINC000151991096    0.1400
     46 H46        -7.9758    3.2937   53.5426 H       1  ZINC000151991096    0.0800
     47 H47        -7.0394    1.8886   54.1533 H       1  ZINC000151991096    0.0900
     48 H48        -5.7364    4.1496   53.3168 H       1  ZINC000151991096    0.0800
     49 H49        -5.0640    2.5289   52.9298 H       1  ZINC000151991096    0.0800
     50 H50        -6.8170    4.3390   51.1798 H       1  ZINC000151991096    0.0600
     51 H51        -5.3179    3.4733   50.7259 H       1  ZINC000151991096    0.0900
@<TRIPOS>BOND
     1     1     2    1
     2     1    30    1
     3     1    31    1
     4     1    32    1
     5     2     3    1
     6     2    33    1
     7     2    34    1
     8     3     4    1
     9     3     5    1
    10     3    24    1
    11     5     6   am
    12     5    35    1
    13     6     7    2
    14     6     8    1
    15     8    23   ar
    16     8     9   ar
    17     9    10   ar
    18     9    36    1
    19    10    11   ar
    20    10    37    1
    21    11    12    1
    22    11    22   ar
    23    12    13    1
    24    13    14    1
    25    13    38    1
    26    13    39    1
    27    14    19   ar
    28    14    15   ar
    29    15    16   ar
    30    15    40    1
    31    16    17   ar
    32    16    41    1
    33    17    18   ar
    34    17    42    1
    35    18    19   ar
    36    18    43    1
    37    19    20    1
    38    20    21    3
    39    22    23   ar
    40    22    44    1
    41    23    45    1
    42    24    25    1
    43    24    29    1
    44    24    26    1
    45    26    27    1
    46    26    46    1
    47    26    47    1
    48    27    28    1
    49    27    48    1
    50    27    49    1
    51    28    29    1
    52    28    50    1
    53    28    51    1
@<TRIPOS>SUBSTRUCTURE
     1 ZINC000151991096        1 TEMP              0 ****  ****    0 ROOT


##########                                Name:    ZINC000438893617
##########                DOCK_Rotatable_Bonds:                   5
##########                         Heavy_Atoms:                  29
##########                    Molecular_Weight:             412.596
##########                DOCK_Rotatable_Bonds:                   5
##########                       Formal_Charge:           0.0600001
##########                     HBond_Acceptors:                   5
##########                        HBond_Donors:                   0
##########                         Heavy_Atoms:                  29
##########                          Grid_Score:          -28.081425
##########                     Grid_vdw_energy:          -27.134880
##########                      Grid_es_energy:           -0.946545
##########           Internal_energy_repulsive:          166.419022

@<TRIPOS>MOLECULE
ZINC000438893617
 61 66 1 0 0
SMALL
USER_CHARGES


@<TRIPOS>ATOM
      1 C1        -11.5147    0.3510   62.0720 C.3     1  ZINC000438893617   -0.1000
      2 C2        -10.3423   -0.2407   61.3330 C.2     1  ZINC000438893617   -0.0900
      3 C3        -10.4904   -1.0505   60.2834 C.2     1  ZINC000438893617   -0.1600
      4 C4        -11.8105   -1.4809   59.6977 C.3     1  ZINC000438893617   -0.0400
      5 H5        -12.4668   -0.6732   59.3740 H       1  ZINC000438893617    0.1400
      6 C6        -12.4669   -2.7342   60.2802 C.3     1  ZINC000438893617   -0.1400
      7 C7        -11.8342   -2.7783   58.8871 C.3     1  ZINC000438893617   -0.1800
      8 H8        -10.8952   -3.3208   58.7777 H       1  ZINC000438893617    0.1300
      9 C9        -12.7637   -2.8424   57.7025 C.2     1  ZINC000438893617    0.5500
     10 O10       -13.8225   -3.4268   57.7935 O.2     1  ZINC000438893617   -0.5300
     11 N11       -12.4182   -2.2503   56.5421 N.am    1  ZINC000438893617   -0.6100
     12 C12       -13.3165   -2.3009   55.3801 C.3     1  ZINC000438893617    0.0900
     13 C13       -13.5931   -0.8669   54.9116 C.3     1  ZINC000438893617    0.1000
     14 N14       -12.3116   -0.1585   54.7860 N.am    1  ZINC000438893617   -0.6100
     15 C15       -11.9665    0.4345   53.6259 C.2     1  ZINC000438893617    0.5300
     16 O16       -12.7162    0.3863   52.6737 O.2     1  ZINC000438893617   -0.5300
     17 C17       -10.6491    1.1574   53.5119 C.3     1  ZINC000438893617   -0.0700
     18 C18       -10.5302    1.7847   52.1214 C.3     1  ZINC000438893617   -0.1100
     19 C19        -9.1927    2.5185   52.0057 C.3     1  ZINC000438893617   -0.0800
     20 C20        -8.0469    1.5270   52.2177 C.3     1  ZINC000438893617   -0.1100
     21 C21        -8.1658    0.8998   53.6081 C.3     1  ZINC000438893617   -0.0800
     22 C22        -8.0930    1.9979   54.6709 C.3     1  ZINC000438893617   -0.1100
     23 C23        -9.2388    2.9895   54.4590 C.3     1  ZINC000438893617   -0.0900
     24 C24        -9.1198    3.6168   53.0685 C.3     1  ZINC000438893617   -0.1100
     25 C25       -10.5764    2.2556   54.5746 C.3     1  ZINC000438893617   -0.0900
     26 C26        -9.5033    0.1658   53.7238 C.3     1  ZINC000438893617   -0.1200
     27 C27       -11.4132   -0.1079   55.9480 C.3     1  ZINC000438893617    0.0700
     28 C28       -11.1392   -1.5371   56.4181 C.3     1  ZINC000438893617    0.1000
     29 S29        -8.9093   -1.5387   59.6874 S.3     1  ZINC000438893617    0.1000
     30 C30        -8.1124   -0.5874   60.9338 C.2     1  ZINC000438893617   -0.2100
     31 C31        -9.0299    0.0194   61.6883 C.2     1  ZINC000438893617   -0.1300
     32 H32       -11.7866    1.3041   61.6184 H       1  ZINC000438893617    0.0700
     33 H33       -12.3619   -0.3326   62.0164 H       1  ZINC000438893617    0.0700
     34 H34       -11.2437    0.5097   63.1158 H       1  ZINC000438893617    0.0700
     35 H35       -11.9439   -3.2473   61.0872 H       1  ZINC000438893617    0.1100
     36 H36       -13.5552   -2.7510   60.3395 H       1  ZINC000438893617    0.1100
     37 H37       -12.8428   -2.8635   54.5757 H       1  ZINC000438893617    0.0800
     38 H38       -14.2536   -2.7804   55.6627 H       1  ZINC000438893617    0.1000
     39 H39       -14.0955   -0.8884   53.9446 H       1  ZINC000438893617    0.1100
     40 H40       -14.2220   -0.3583   55.6423 H       1  ZINC000438893617    0.0700
     41 H41       -10.5820    1.0023   51.3643 H       1  ZINC000438893617    0.0800
     42 H42       -11.3465    2.4911   51.9705 H       1  ZINC000438893617    0.0700
     43 H43        -9.1079    2.9653   51.0151 H       1  ZINC000438893617    0.0800
     44 H44        -8.0987    0.7446   51.4605 H       1  ZINC000438893617    0.0600
     45 H45        -7.0940    2.0498   52.1352 H       1  ZINC000438893617    0.0700
     46 H46        -7.3495    0.1934   53.7591 H       1  ZINC000438893617    0.0800
     47 H47        -8.1778    1.5511   55.6615 H       1  ZINC000438893617    0.0600
     48 H48        -7.1402    2.5207   54.5885 H       1  ZINC000438893617    0.0700
     49 H49        -9.1870    3.7719   55.2162 H       1  ZINC000438893617    0.0700
     50 H50        -8.1670    4.1396   52.9861 H       1  ZINC000438893617    0.0700
     51 H51        -9.9361    4.3232   52.9176 H       1  ZINC000438893617    0.0600
     52 H52       -11.3927    2.9620   54.4237 H       1  ZINC000438893617    0.0700
     53 H53       -10.6611    1.8087   55.5653 H       1  ZINC000438893617    0.0700
     54 H54        -9.5881   -0.2810   54.7144 H       1  ZINC000438893617    0.0700
     55 H55        -9.5552   -0.6165   52.9667 H       1  ZINC000438893617    0.0800
     56 H56       -10.4762    0.3717   55.6654 H       1  ZINC000438893617    0.1300
     57 H57       -11.8870    0.4548   56.7524 H       1  ZINC000438893617    0.0800
     58 H58       -10.6367   -1.5141   57.3851 H       1  ZINC000438893617    0.1100
     59 H59       -10.5108   -2.0480   55.6886 H       1  ZINC000438893617    0.0700
     60 H60        -7.0438   -0.5039   61.0653 H       1  ZINC000438893617    0.1700
     61 H61        -8.7688    0.6590   62.5185 H       1  ZINC000438893617    0.1400
@<TRIPOS>BOND
     1     1     2    1
     2     1    32    1
     3     1    33    1
     4     1    34    1
     5     2    31    1
     6     2     3    2
     7     3     4    1
     8     3    29    1
     9     4     5    1
    10     4     7    1
    11     4     6    1
    12     6     7    1
    13     6    35    1
    14     6    36    1
    15     7     8    1
    16     7     9    1
    17     9    10    2
    18     9    11   am
    19    11    28    1
    20    11    12    1
    21    12    13    1
    22    12    37    1
    23    12    38    1
    24    13    14    1
    25    13    39    1
    26    13    40    1
    27    14    15   am
    28    14    27    1
    29    15    16    2
    30    15    17    1
    31    17    25    1
    32    17    26    1
    33    17    18    1
    34    18    19    1
    35    18    41    1
    36    18    42    1
    37    19    24    1
    38    19    20    1
    39    19    43    1
    40    20    21    1
    41    20    44    1
    42    20    45    1
    43    21    22    1
    44    21    26    1
    45    21    46    1
    46    22    23    1
    47    22    47    1
    48    22    48    1
    49    23    24    1
    50    23    25    1
    51    23    49    1
    52    24    50    1
    53    24    51    1
    54    25    52    1
    55    25    53    1
    56    26    54    1
    57    26    55    1
    58    27    28    1
    59    27    56    1
    60    27    57    1
    61    28    58    1
    62    28    59    1
    63    29    30    1
    64    30    31    2
    65    30    60    1
    66    31    61    1
@<TRIPOS>SUBSTRUCTURE
     1 ZINC000438893617        1 TEMP              0 ****  ****    0 ROOT


##########                                Name:    ZINC000007167963
##########                DOCK_Rotatable_Bonds:                   8
##########                         Heavy_Atoms:                  25
##########                    Molecular_Weight:             378.433
##########                DOCK_Rotatable_Bonds:                   8
##########                       Formal_Charge:        -1.01328e-06
##########                     HBond_Acceptors:                  10
##########                        HBond_Donors:                   3
##########                         Heavy_Atoms:                  25
##########                          Grid_Score:          -28.053980
##########                     Grid_vdw_energy:          -27.632917
##########                      Grid_es_energy:           -0.421063
##########           Internal_energy_repulsive:           12.988840

@<TRIPOS>MOLECULE
ZINC000007167963
 39 41 1 0 0
SMALL
USER_CHARGES


@<TRIPOS>ATOM
      1 C1         -9.3565    2.3532   54.7990 C.3     1  ZINC000007167963   -0.0800
      2 C2         -7.9609    2.6103   55.3065 C.2     1  ZINC000007167963    0.0900
      3 C3         -7.4200    2.0948   56.4440 C.2     1  ZINC000007167963   -0.1500
      4 C4         -8.0725    1.1869   57.4107 C.2     1  ZINC000007167963    0.2600
      5 N5         -9.3029    0.7395   57.3466 N.2     1  ZINC000007167963   -0.2700
      6 N6         -9.5321   -0.0276   58.3536 N.2     1  ZINC000007167963   -0.2800
      7 C7         -8.4569   -0.1007   59.1011 C.2     1  ZINC000007167963    0.1200
      8 S8         -8.2817   -1.0298   60.5879 S.3     1  ZINC000007167963    0.1500
      9 C9         -9.5569   -0.2422   61.6028 C.3     1  ZINC000007167963   -0.1200
     10 H10        -9.4990   -0.6258   62.6213 H       1  ZINC000007167963    0.1400
     11 C11        -9.3362    1.2718   61.6147 C.3     1  ZINC000007167963   -0.1500
     12 C12       -10.9161   -0.5471   61.0276 C.2     1  ZINC000007167963    0.5300
     13 O13       -11.7001    0.3532   60.8142 O.2     1  ZINC000007167963   -0.4900
     14 N14       -11.2602   -1.8204   60.7504 N.am    1  ZINC000007167963   -0.6100
     15 C15       -12.5101   -2.1008   60.2196 C.2     1  ZINC000007167963    0.0800
     16 C16       -12.7255   -2.6685   58.9906 C.2     1  ZINC000007167963   -0.2400
     17 C17       -11.6474   -3.0538   58.0748 C.2     1  ZINC000007167963    0.5900
     18 N18       -10.5929   -3.7571   58.5330 N.am    1  ZINC000007167963   -0.8400
     19 O19       -11.7046   -2.7387   56.9006 O.2     1  ZINC000007167963   -0.5600
     20 C20       -14.1298   -2.8477   58.6941 C.2     1  ZINC000007167963   -0.0900
     21 C21       -14.9258   -2.4281   59.6673 C.2     1  ZINC000007167963   -0.2800
     22 S22       -13.9893   -1.7937   61.0087 S.3     1  ZINC000007167963    0.3000
     23 O23        -7.5088    0.6606   58.5202 O.3     1  ZINC000007167963   -0.2000
     24 C24        -6.0529    2.6273   56.5109 C.2     1  ZINC000007167963   -0.1800
     25 C25        -5.9029    3.4012   55.4236 C.2     1  ZINC000007167963   -0.0300
     26 O26        -7.0396    3.3810   54.7111 O.3     1  ZINC000007167963   -0.1700
     27 H27        -9.5087    2.8935   53.8647 H       1  ZINC000007167963    0.0800
     28 H28        -9.4895    1.2851   54.6268 H       1  ZINC000007167963    0.1000
     29 H29       -10.0807    2.6950   55.5385 H       1  ZINC000007167963    0.1000
     30 H30        -8.3532    1.4924   62.0307 H       1  ZINC000007167963    0.0900
     31 H31        -9.3941    1.6554   60.5961 H       1  ZINC000007167963    0.0800
     32 H32       -10.1041    1.7460   62.2259 H       1  ZINC000007167963    0.0800
     33 H33       -10.6335   -2.5405   60.9222 H       1  ZINC000007167963    0.4400
     34 H34        -9.8791   -4.0110   57.9272 H       1  ZINC000007167963    0.4000
     35 H35       -10.5477   -4.0093   59.4685 H       1  ZINC000007167963    0.4100
     36 H36       -14.4929   -3.2788   57.7729 H       1  ZINC000007167963    0.1500
     37 H37       -16.0045   -2.4741   59.6400 H       1  ZINC000007167963    0.1700
     38 H38        -5.3179    2.4359   57.2788 H       1  ZINC000007167963    0.1600
     39 H39        -5.0093    3.9485   55.1625 H       1  ZINC000007167963    0.2200
@<TRIPOS>BOND
     1     1     2    1
     2     1    27    1
     3     1    28    1
     4     1    29    1
     5     2    26    1
     6     2     3    2
     7     3     4    1
     8     3    24    1
     9     4    23    1
    10     4     5    2
    11     5     6    1
    12     6     7    2
    13     7     8    1
    14     7    23    1
    15     8     9    1
    16     9    10    1
    17     9    11    1
    18     9    12    1
    19    11    30    1
    20    11    31    1
    21    11    32    1
    22    12    13    2
    23    12    14   am
    24    14    15    1
    25    14    33    1
    26    15    22    1
    27    15    16    2
    28    16    17    1
    29    16    20    1
    30    17    18   am
    31    17    19    2
    32    18    34    1
    33    18    35    1
    34    20    21    2
    35    20    36    1
    36    21    22    1
    37    21    37    1
    38    24    25    2
    39    24    38    1
    40    25    26    1
    41    25    39    1
@<TRIPOS>SUBSTRUCTURE
     1 ZINC000007167963        1 TEMP              0 ****  ****    0 ROOT


##########                                Name:    ZINC000655235556
##########                DOCK_Rotatable_Bonds:                   6
##########                         Heavy_Atoms:                  23
##########                    Molecular_Weight:             336.778
##########                DOCK_Rotatable_Bonds:                   6
##########                       Formal_Charge:         -0.00999996
##########                     HBond_Acceptors:                   8
##########                        HBond_Donors:                   2
##########                         Heavy_Atoms:                  23
##########                          Grid_Score:          -28.052402
##########                     Grid_vdw_energy:          -27.250309
##########                      Grid_es_energy:           -0.802093
##########           Internal_energy_repulsive:            6.783463

@<TRIPOS>MOLECULE
ZINC000655235556
 40 42 1 0 0
SMALL
USER_CHARGES


@<TRIPOS>ATOM
      1 C1         -8.0004    4.4319   54.0591 C.3     1  ZINC000655235556    0.0200
      2 O2         -6.9403    3.4740   54.0306 O.3     1  ZINC000655235556   -0.2700
      3 C3         -7.1298    2.3683   53.2680 C.ar    1  ZINC000655235556    0.2000
      4 C4         -8.1807    1.5066   53.5403 C.ar    1  ZINC000655235556   -0.2100
      5 C5         -8.3727    0.3804   52.7618 C.ar    1  ZINC000655235556    0.0300
      6 Cl6        -9.6911   -0.6943   53.1087 Cl      1  ZINC000655235556   -0.0500
      7 C7         -7.5182    0.1048   51.7051 C.ar    1  ZINC000655235556   -0.1600
      8 C8         -6.4689    0.9512   51.4213 C.ar    1  ZINC000655235556   -0.0300
      9 C9         -6.2668    2.0952   52.1972 C.ar    1  ZINC000655235556   -0.1700
     10 C10        -5.1455    3.0053   51.8980 C.2     1  ZINC000655235556    0.5700
     11 O11        -5.3673    4.1396   51.5200 O.2     1  ZINC000655235556   -0.5100
     12 N12        -3.8750    2.5798   52.0435 N.am    1  ZINC000655235556   -0.7300
     13 C13        -2.7611    3.4845   51.7481 C.3     1  ZINC000655235556    0.2100
     14 C14        -2.0029    2.9731   50.5503 C.2     1  ZINC000655235556    0.2600
     15 N15        -0.7391    2.6351   50.5281 N.2     1  ZINC000655235556   -0.5100
     16 C16        -0.4017    2.2279   49.3051 C.2     1  ZINC000655235556    0.2200
     17 C17         0.9672    1.7577   48.8853 C.3     1  ZINC000655235556    0.1700
     18 H18         1.7108    2.0926   49.6083 H       1  ZINC000655235556    0.1100
     19 C19         1.3070    2.3170   47.4870 C.3     1  ZINC000655235556   -0.1400
     20 C20         2.0324    1.1170   46.8194 C.3     1  ZINC000655235556   -0.1500
     21 C21         1.2665   -0.0753   47.4461 C.3     1  ZINC000655235556    0.0500
     22 O22         0.9841    0.3282   48.7975 O.3     1  ZINC000655235556   -0.3700
     23 N23        -1.4508    2.3017   48.5288 N.2     1  ZINC000655235556   -0.2800
     24 N24        -2.5083    2.7794   49.3199 N.pl3   1  ZINC000655235556   -0.4700
     25 H25        -8.1845    4.8002   53.0498 H       1  ZINC000655235556    0.0600
     26 H26        -8.9049    3.9616   54.4448 H       1  ZINC000655235556    0.0600
     27 H27        -7.7204    5.2646   54.7043 H       1  ZINC000655235556    0.1100
     28 H28        -8.8502    1.7151   54.3617 H       1  ZINC000655235556    0.1500
     29 H29        -7.6758   -0.7772   51.1023 H       1  ZINC000655235556    0.1400
     30 H30        -5.8056    0.7325   50.5974 H       1  ZINC000655235556    0.1400
     31 H31        -3.6980    1.6746   52.3440 H       1  ZINC000655235556    0.4000
     32 H32        -3.1489    4.4805   51.5345 H       1  ZINC000655235556    0.1000
     33 H33        -2.0931    3.5313   52.6081 H       1  ZINC000655235556    0.1100
     34 H34         0.3993    2.5742   46.9410 H       1  ZINC000655235556    0.0800
     35 H35         1.9714    3.1776   47.5645 H       1  ZINC000655235556    0.0900
     36 H36         1.9099    1.1371   45.7365 H       1  ZINC000655235556    0.0900
     37 H37         3.0871    1.0939   47.0932 H       1  ZINC000655235556    0.0800
     38 H38         0.3389   -0.2566   46.9030 H       1  ZINC000655235556    0.0600
     39 H39         1.8895   -0.9696   47.4414 H       1  ZINC000655235556    0.0900
     40 H40        -3.4204    2.9433   49.0336 H       1  ZINC000655235556    0.4400
@<TRIPOS>BOND
     1     1     2    1
     2     1    25    1
     3     1    26    1
     4     1    27    1
     5     2     3    1
     6     3     9   ar
     7     3     4   ar
     8     4     5   ar
     9     4    28    1
    10     5     6    1
    11     5     7   ar
    12     7     8   ar
    13     7    29    1
    14     8     9   ar
    15     8    30    1
    16     9    10    1
    17    10    11    2
    18    10    12   am
    19    12    13    1
    20    12    31    1
    21    13    14    1
    22    13    32    1
    23    13    33    1
    24    14    24    1
    25    14    15    2
    26    15    16    1
    27    16    17    1
    28    16    23    2
    29    17    18    1
    30    17    22    1
    31    17    19    1
    32    19    20    1
    33    19    34    1
    34    19    35    1
    35    20    21    1
    36    20    36    1
    37    20    37    1
    38    21    22    1
    39    21    38    1
    40    21    39    1
    41    23    24    1
    42    24    40    1
@<TRIPOS>SUBSTRUCTURE
     1 ZINC000655235556        1 TEMP              0 ****  ****    0 ROOT


##########                                Name:    ZINC000790205345
##########                DOCK_Rotatable_Bonds:                   7
##########                         Heavy_Atoms:                  28
##########                    Molecular_Weight:             382.459
##########                DOCK_Rotatable_Bonds:                   7
##########                       Formal_Charge:          -0.0299997
##########                     HBond_Acceptors:                   6
##########                        HBond_Donors:                   0
##########                         Heavy_Atoms:                  28
##########                          Grid_Score:          -28.051237
##########                     Grid_vdw_energy:          -26.483608
##########                      Grid_es_energy:           -1.567629
##########           Internal_energy_repulsive:           22.998268

@<TRIPOS>MOLECULE
ZINC000790205345
 54 56 1 0 0
SMALL
USER_CHARGES


@<TRIPOS>ATOM
      1 C1         -5.4951    3.1898   52.5294 C.3     1  ZINC000790205345   -0.1100
      2 C2         -4.4415    3.2986   53.6015 C.ar    1  ZINC000790205345   -0.1300
      3 C3         -3.1410    3.6201   53.2607 C.ar    1  ZINC000790205345   -0.0800
      4 C4         -2.1733    3.7209   54.2417 C.ar    1  ZINC000790205345   -0.2100
      5 C5         -2.5078    3.4992   55.5695 C.ar    1  ZINC000790205345    0.1300
      6 O6         -1.5579    3.5982   56.5364 O.3     1  ZINC000790205345   -0.2900
      7 C7         -1.0992    2.3783   57.1225 C.3     1  ZINC000790205345    0.0400
      8 C8          0.3960    2.4379   57.3010 C.2     1  ZINC000790205345    0.5200
      9 O9          1.1274    1.9854   56.4459 O.2     1  ZINC000790205345   -0.5100
     10 N10         0.9205    2.9940   58.4110 N.am    1  ZINC000790205345   -0.6100
     11 C11         2.3741    3.0535   58.5837 C.3     1  ZINC000790205345    0.0700
     12 C12         0.0372    3.5390   59.4448 C.3     1  ZINC000790205345    0.1800
     13 H13        -0.9244    3.7981   59.0015 H       1  ZINC000790205345    0.1200
     14 C14         0.6734    4.7915   60.0509 C.3     1  ZINC000790205345   -0.1600
     15 C15        -0.1690    2.5078   60.5242 C.ar    1  ZINC000790205345   -0.0700
     16 C16        -1.1460    2.6983   61.4838 C.ar    1  ZINC000790205345   -0.1300
     17 C17        -1.3379    1.7545   62.4764 C.ar    1  ZINC000790205345   -0.0900
     18 C18        -0.5541    0.6182   62.5114 C.ar    1  ZINC000790205345   -0.1500
     19 C19         0.4279    0.4236   61.5488 C.ar    1  ZINC000790205345    0.1800
     20 N20         1.2237   -0.7272   61.5815 N.am    1  ZINC000790205345   -0.5700
     21 C21         0.7307   -2.1040   61.7390 C.3     1  ZINC000790205345    0.0600
     22 C22         2.0123   -2.9588   61.7059 C.3     1  ZINC000790205345    0.0400
     23 O23         3.0819   -1.9843   61.5350 O.3     1  ZINC000790205345   -0.3200
     24 C24         2.5587   -0.7549   61.4684 C.2     1  ZINC000790205345    0.6400
     25 O25         3.2331    0.2460   61.3266 O.2     1  ZINC000790205345   -0.5000
     26 C26         0.6146    1.3706   60.5506 C.ar    1  ZINC000790205345   -0.1400
     27 C27        -3.8139    3.1767   55.9090 C.ar    1  ZINC000790205345   -0.1500
     28 C28        -4.7787    3.0824   54.9251 C.ar    1  ZINC000790205345   -0.0500
     29 C29        -6.1977    2.7326   55.2930 C.3     1  ZINC000790205345   -0.1200
     30 H30        -5.9630    4.1629   52.3797 H       1  ZINC000790205345    0.0700
     31 H31        -5.0333    2.8615   51.5982 H       1  ZINC000790205345    0.0600
     32 H32        -6.2509    2.4663   52.8349 H       1  ZINC000790205345    0.0700
     33 H33        -2.8809    3.7922   52.2266 H       1  ZINC000790205345    0.1300
     34 H34        -1.1573    3.9716   53.9749 H       1  ZINC000790205345    0.1300
     35 H35        -1.5758    2.2397   58.0930 H       1  ZINC000790205345    0.1000
     36 H36        -1.3542    1.5433   56.4699 H       1  ZINC000790205345    0.0900
     37 H37         2.7651    3.9329   58.0719 H       1  ZINC000790205345    0.0600
     38 H38         2.6115    3.1158   59.6457 H       1  ZINC000790205345    0.0800
     39 H39         2.8271    2.1563   58.1621 H       1  ZINC000790205345    0.0700
     40 H40         1.6348    4.5324   60.4942 H       1  ZINC000790205345    0.0600
     41 H41         0.8224    5.5374   59.2702 H       1  ZINC000790205345    0.0700
     42 H42         0.0160    5.1970   60.8201 H       1  ZINC000790205345    0.0800
     43 H43        -1.7603    3.5862   61.4584 H       1  ZINC000790205345    0.1300
     44 H44        -2.1014    1.9065   63.2248 H       1  ZINC000790205345    0.1300
     45 H45        -0.7042   -0.1183   63.2870 H       1  ZINC000790205345    0.1300
     46 H46         0.2176   -2.2200   62.6936 H       1  ZINC000790205345    0.1000
     47 H47         0.0709   -2.3712   60.9136 H       1  ZINC000790205345    0.1000
     48 H48         2.1349   -3.5000   62.6441 H       1  ZINC000790205345    0.1100
     49 H49         1.9882   -3.6512   60.8645 H       1  ZINC000790205345    0.1100
     50 H50         1.3772    1.2220   59.8004 H       1  ZINC000790205345    0.1600
     51 H51        -4.0768    3.0034   56.9420 H       1  ZINC000790205345    0.1300
     52 H52        -6.7557    3.6462   55.4978 H       1  ZINC000790205345    0.0700
     53 H53        -6.6662    2.1982   54.4666 H       1  ZINC000790205345    0.0700
     54 H54        -6.1974    2.1004   56.1810 H       1  ZINC000790205345    0.0700
@<TRIPOS>BOND
     1     1     2    1
     2     1    30    1
     3     1    31    1
     4     1    32    1
     5     2    28   ar
     6     2     3   ar
     7     3     4   ar
     8     3    33    1
     9     4     5   ar
    10     4    34    1
    11     5     6    1
    12     5    27   ar
    13     6     7    1
    14     7     8    1
    15     7    35    1
    16     7    36    1
    17     8     9    2
    18     8    10   am
    19    10    11    1
    20    10    12    1
    21    11    37    1
    22    11    38    1
    23    11    39    1
    24    12    13    1
    25    12    14    1
    26    12    15    1
    27    14    40    1
    28    14    41    1
    29    14    42    1
    30    15    26   ar
    31    15    16   ar
    32    16    17   ar
    33    16    43    1
    34    17    18   ar
    35    17    44    1
    36    18    19   ar
    37    18    45    1
    38    19    20    1
    39    19    26   ar
    40    20    24   am
    41    20    21    1
    42    21    22    1
    43    21    46    1
    44    21    47    1
    45    22    23    1
    46    22    48    1
    47    22    49    1
    48    23    24    1
    49    24    25    2
    50    26    50    1
    51    27    28   ar
    52    27    51    1
    53    28    29    1
    54    29    52    1
    55    29    53    1
    56    29    54    1
@<TRIPOS>SUBSTRUCTURE
     1 ZINC000790205345        1 TEMP              0 ****  ****    0 ROOT


##########                                Name:    ZINC000077537368
##########                DOCK_Rotatable_Bonds:                   5
##########                         Heavy_Atoms:                  27
##########                    Molecular_Weight:             365.478
##########                DOCK_Rotatable_Bonds:                   5
##########                       Formal_Charge:          -0.0400007
##########                     HBond_Acceptors:                   6
##########                        HBond_Donors:                   0
##########                         Heavy_Atoms:                  27
##########                          Grid_Score:          -28.042362
##########                     Grid_vdw_energy:          -28.215973
##########                      Grid_es_energy:            0.173611
##########           Internal_energy_repulsive:           16.535841

@<TRIPOS>MOLECULE
ZINC000077537368
 54 56 1 0 0
SMALL
USER_CHARGES


@<TRIPOS>ATOM
      1 C1         -6.6786    3.6086   55.5299 C.3     1  ZINC000077537368    0.0800
      2 N2         -7.8016    2.7581   55.1278 N.pl3   1  ZINC000077537368   -0.2600
      3 N3         -7.8925    2.1315   54.0102 N.2     1  ZINC000077537368   -0.2700
      4 C4         -9.0111    1.4557   53.9430 C.2     1  ZINC000077537368    0.0400
      5 C5         -9.4635    0.6015   52.7869 C.3     1  ZINC000077537368    0.0200
      6 C6         -8.2410    0.0817   52.0277 C.3     1  ZINC000077537368   -0.1400
      7 C7        -10.2771   -0.5819   53.3148 C.3     1  ZINC000077537368   -0.1400
      8 C8        -10.3318    1.4373   51.8442 C.3     1  ZINC000077537368   -0.1400
      9 C9         -9.7110    1.6661   55.1332 C.2     1  ZINC000077537368   -0.2000
     10 C10        -8.9091    2.5057   55.8866 C.2     1  ZINC000077537368   -0.0400
     11 C11        -9.1961    3.0290   57.2318 C.2     1  ZINC000077537368    0.5900
     12 O12        -9.8806    4.0257   57.3633 O.2     1  ZINC000077537368   -0.5400
     13 N13        -8.7004    2.4037   58.3180 N.am    1  ZINC000077537368   -0.6000
     14 C14        -8.9800    2.9063   59.6716 C.3     1  ZINC000077537368    0.0800
     15 C15        -9.5051    1.7455   60.5230 C.3     1  ZINC000077537368    0.0400
     16 N16        -8.5550    0.6268   60.4597 N.3     1  ZINC000077537368   -0.5300
     17 C17        -8.9339   -0.4393   61.3964 C.3     1  ZINC000077537368    0.0900
     18 C18       -10.2991   -0.9646   61.0341 C.ar    1  ZINC000077537368   -0.0500
     19 C19       -10.4182   -2.0146   60.1409 C.ar    1  ZINC000077537368   -0.1200
     20 C20       -11.6649   -2.5001   59.8046 C.ar    1  ZINC000077537368   -0.0700
     21 C21       -12.8080   -1.9297   60.3681 C.ar    1  ZINC000077537368   -0.0300
     22 C22       -14.1053   -2.4290   60.0239 C.1     1  ZINC000077537368    0.2500
     23 N23       -15.1344   -2.8250   59.7508 N.1     1  ZINC000077537368   -0.4100
     24 C24       -12.6805   -0.8707   61.2691 C.ar    1  ZINC000077537368   -0.0700
     25 C25       -11.4274   -0.3985   61.6007 C.ar    1  ZINC000077537368   -0.1000
     26 C26        -8.4345    0.1070   59.0910 C.3     1  ZINC000077537368    0.0400
     27 C27        -7.8705    1.1971   58.1813 C.3     1  ZINC000077537368    0.1200
     28 H28        -5.9794    3.0271   56.1309 H       1  ZINC000077537368    0.0800
     29 H29        -6.1700    3.9829   54.6415 H       1  ZINC000077537368    0.1000
     30 H30        -7.0507    4.4485   56.1165 H       1  ZINC000077537368    0.1100
     31 H31        -7.6225   -0.5137   52.6994 H       1  ZINC000077537368    0.0600
     32 H32        -8.5683   -0.5362   51.1916 H       1  ZINC000077537368    0.0600
     33 H33        -7.6615    0.9247   51.6516 H       1  ZINC000077537368    0.0600
     34 H34       -11.1480   -0.2116   53.8556 H       1  ZINC000077537368    0.0600
     35 H35       -10.6044   -1.1998   52.4786 H       1  ZINC000077537368    0.0600
     36 H36        -9.6586   -1.1773   53.9864 H       1  ZINC000077537368    0.0600
     37 H37        -9.7522    2.2803   51.4681 H       1  ZINC000077537368    0.0600
     38 H38       -10.6590    0.8193   51.0080 H       1  ZINC000077537368    0.0600
     39 H39       -11.2028    1.8075   52.3850 H       1  ZINC000077537368    0.0600
     40 H40       -10.6720    1.2575   55.4087 H       1  ZINC000077537368    0.1700
     41 H41        -8.0639    3.2988   60.1130 H       1  ZINC000077537368    0.0800
     42 H42        -9.7323    3.6934   59.6218 H       1  ZINC000077537368    0.1200
     43 H43        -9.6133    2.0727   61.5571 H       1  ZINC000077537368    0.0900
     44 H44       -10.4733    1.4224   60.1401 H       1  ZINC000077537368    0.0400
     45 H45        -8.2063   -1.2488   61.3392 H       1  ZINC000077537368    0.0900
     46 H46        -8.9554   -0.0410   62.4108 H       1  ZINC000077537368    0.0500
     47 H47        -9.5332   -2.4548   59.7057 H       1  ZINC000077537368    0.1300
     48 H48       -11.7565   -3.3192   59.1066 H       1  ZINC000077537368    0.1300
     49 H49       -13.5605   -0.4251   61.7087 H       1  ZINC000077537368    0.1300
     50 H50       -11.3272    0.4202   62.2977 H       1  ZINC000077537368    0.1400
     51 H51        -7.7662   -0.7541   59.0866 H       1  ZINC000077537368    0.1000
     52 H52        -9.4175   -0.1932   58.7281 H       1  ZINC000077537368    0.0400
     53 H53        -7.8866    0.8550   57.1465 H       1  ZINC000077537368    0.1000
     54 H54        -6.8473    1.4282   58.4775 H       1  ZINC000077537368    0.0800
@<TRIPOS>BOND
     1     1     2    1
     2     1    28    1
     3     1    29    1
     4     1    30    1
     5     2    10    1
     6     2     3    1
     7     3     4    2
     8     4     5    1
     9     4     9    1
    10     5     6    1
    11     5     7    1
    12     5     8    1
    13     6    31    1
    14     6    32    1
    15     6    33    1
    16     7    34    1
    17     7    35    1
    18     7    36    1
    19     8    37    1
    20     8    38    1
    21     8    39    1
    22     9    10    2
    23     9    40    1
    24    10    11    1
    25    11    12    2
    26    11    13   am
    27    13    27    1
    28    13    14    1
    29    14    15    1
    30    14    41    1
    31    14    42    1
    32    15    16    1
    33    15    43    1
    34    15    44    1
    35    16    17    1
    36    16    26    1
    37    17    18    1
    38    17    45    1
    39    17    46    1
    40    18    25   ar
    41    18    19   ar
    42    19    20   ar
    43    19    47    1
    44    20    21   ar
    45    20    48    1
    46    21    22    1
    47    21    24   ar
    48    22    23    3
    49    24    25   ar
    50    24    49    1
    51    25    50    1
    52    26    27    1
    53    26    51    1
    54    26    52    1
    55    27    53    1
    56    27    54    1
@<TRIPOS>SUBSTRUCTURE
     1 ZINC000077537368        1 TEMP              0 ****  ****    0 ROOT


##########                                Name:    ZINC000081577146
##########                DOCK_Rotatable_Bonds:                   4
##########                         Heavy_Atoms:                  25
##########                    Molecular_Weight:             355.464
##########                DOCK_Rotatable_Bonds:                   4
##########                       Formal_Charge:                0.02
##########                     HBond_Acceptors:                   7
##########                        HBond_Donors:                   0
##########                         Heavy_Atoms:                  25
##########                          Grid_Score:          -28.041595
##########                     Grid_vdw_energy:          -27.399971
##########                      Grid_es_energy:           -0.641624
##########           Internal_energy_repulsive:           11.580847

@<TRIPOS>MOLECULE
ZINC000081577146
 46 49 1 0 0
SMALL
USER_CHARGES


@<TRIPOS>ATOM
      1 C1        -15.5909   -4.3080   57.1240 C.3     1  ZINC000081577146   -0.0700
      2 C2        -15.1165   -3.4786   58.2895 C.2     1  ZINC000081577146    0.2900
      3 N3        -15.8896   -3.2526   59.3113 N.2     1  ZINC000081577146   -0.4800
      4 S4        -14.9777   -2.2926   60.3768 S.3     1  ZINC000081577146    0.1900
      5 C5        -13.5834   -2.2513   59.3654 C.2     1  ZINC000081577146    0.2700
      6 N6        -12.3824   -1.6115   59.6128 N.3     1  ZINC000081577146   -0.4300
      7 C7        -11.3152   -2.5832   59.8891 C.3     1  ZINC000081577146    0.0700
      8 C8         -9.9899   -1.8414   60.0783 C.3     1  ZINC000081577146    0.0500
      9 N9        -10.1225   -0.8809   61.1826 N.3     1  ZINC000081577146   -0.5200
     10 C10        -8.8469   -0.2014   61.4453 C.3     1  ZINC000081577146    0.1900
     11 H11        -8.0217   -0.8713   61.2037 H       1  ZINC000081577146    0.0700
     12 C12        -8.7716    0.1883   62.9229 C.3     1  ZINC000081577146   -0.1500
     13 C13        -8.7533    1.0383   60.5935 C.2     1  ZINC000081577146    0.1900
     14 N14        -9.0423    2.2481   60.9837 N.2     1  ZINC000081577146   -0.4500
     15 C15        -8.8414    3.0938   59.9621 C.2     1  ZINC000081577146   -0.0200
     16 C16        -8.4104    2.3610   58.9035 C.2     1  ZINC000081577146    0.0000
     17 C17        -8.0631    2.8725   57.5608 C.ar    1  ZINC000081577146   -0.0200
     18 C18        -8.1633    4.2366   57.2829 C.ar    1  ZINC000081577146   -0.1000
     19 C19        -7.8372    4.7075   56.0278 C.ar    1  ZINC000081577146   -0.1200
     20 C20        -7.4122    3.8307   55.0455 C.ar    1  ZINC000081577146   -0.1100
     21 C21        -7.3112    2.4774   55.3143 C.ar    1  ZINC000081577146   -0.1100
     22 C22        -7.6283    1.9942   56.5670 C.ar    1  ZINC000081577146   -0.0900
     23 O23        -8.3542    1.0751   59.3148 O.3     1  ZINC000081577146   -0.2000
     24 C24       -11.1898    0.0909   60.9063 C.3     1  ZINC000081577146    0.0600
     25 C25       -12.5150   -0.6510   60.7170 C.3     1  ZINC000081577146    0.0500
     26 N26       -13.9082   -2.9657   58.3085 N.2     1  ZINC000081577146   -0.5400
     27 H27       -15.3523   -5.3564   57.3031 H       1  ZINC000081577146    0.0900
     28 H28       -16.6692   -4.1947   57.0124 H       1  ZINC000081577146    0.0900
     29 H29       -15.0941   -3.9728   56.2135 H       1  ZINC000081577146    0.0900
     30 H30       -11.5543   -3.1377   60.7965 H       1  ZINC000081577146    0.0700
     31 H31       -11.2281   -3.2755   59.0517 H       1  ZINC000081577146    0.1100
     32 H32        -9.2023   -2.5577   60.3120 H       1  ZINC000081577146    0.1000
     33 H33        -9.7371   -1.3088   59.1615 H       1  ZINC000081577146    0.0600
     34 H34        -9.5966    0.8584   63.1645 H       1  ZINC000081577146    0.0800
     35 H35        -8.8392   -0.7083   63.5390 H       1  ZINC000081577146    0.0800
     36 H36        -7.8251    0.6926   63.1179 H       1  ZINC000081577146    0.0700
     37 H37        -8.9946    4.1628   59.9786 H       1  ZINC000081577146    0.1900
     38 H38        -8.4956    4.9220   58.0486 H       1  ZINC000081577146    0.1300
     39 H39        -7.9143    5.7629   55.8114 H       1  ZINC000081577146    0.1300
     40 H40        -7.1585    4.2045   54.0645 H       1  ZINC000081577146    0.1300
     41 H41        -6.9794    1.7982   54.5429 H       1  ZINC000081577146    0.1300
     42 H42        -7.5485    0.9376   56.7757 H       1  ZINC000081577146    0.1300
     43 H43       -11.2769    0.7832   61.7436 H       1  ZINC000081577146    0.0900
     44 H44       -10.9506    0.6454   59.9988 H       1  ZINC000081577146    0.0500
     45 H45       -13.3026    0.0654   60.4833 H       1  ZINC000081577146    0.1000
     46 H46       -12.7677   -1.1835   61.6338 H       1  ZINC000081577146    0.0800
@<TRIPOS>BOND
     1     1     2    1
     2     1    27    1
     3     1    28    1
     4     1    29    1
     5     2    26    1
     6     2     3    2
     7     3     4    1
     8     4     5    1
     9     5     6    1
    10     5    26    2
    11     6    25    1
    12     6     7    1
    13     7     8    1
    14     7    30    1
    15     7    31    1
    16     8     9    1
    17     8    32    1
    18     8    33    1
    19     9    10    1
    20     9    24    1
    21    10    11    1
    22    10    12    1
    23    10    13    1
    24    12    34    1
    25    12    35    1
    26    12    36    1
    27    13    23    1
    28    13    14    2
    29    14    15    1
    30    15    16    2
    31    15    37    1
    32    16    17    1
    33    16    23    1
    34    17    22   ar
    35    17    18   ar
    36    18    19   ar
    37    18    38    1
    38    19    20   ar
    39    19    39    1
    40    20    21   ar
    41    20    40    1
    42    21    22   ar
    43    21    41    1
    44    22    42    1
    45    24    25    1
    46    24    43    1
    47    24    44    1
    48    25    45    1
    49    25    46    1
@<TRIPOS>SUBSTRUCTURE
     1 ZINC000081577146        1 TEMP              0 ****  ****    0 ROOT


##########                                Name:    ZINC000263872566
##########                DOCK_Rotatable_Bonds:                   9
##########                         Heavy_Atoms:                  26
##########                    Molecular_Weight:             362.469
##########                DOCK_Rotatable_Bonds:                   9
##########                       Formal_Charge:           0.0300001
##########                     HBond_Acceptors:                   6
##########                        HBond_Donors:                   2
##########                         Heavy_Atoms:                  26
##########                          Grid_Score:          -28.021923
##########                     Grid_vdw_energy:          -25.979483
##########                      Grid_es_energy:           -2.042439
##########           Internal_energy_repulsive:           22.731749

@<TRIPOS>MOLECULE
ZINC000263872566
 56 57 1 0 0
SMALL
USER_CHARGES


@<TRIPOS>ATOM
      1 C1         -9.6337   -0.1468   52.2023 C.3     1  ZINC000263872566   -0.1800
      2 C2         -9.4206    1.3681   52.2217 C.3     1  ZINC000263872566    0.1400
      3 H3         -8.6703    1.6391   51.4788 H       1  ZINC000263872566    0.0700
      4 O4        -10.6518    2.0263   51.9169 O.3     1  ZINC000263872566   -0.5600
      5 C5         -8.9495    1.7918   53.5890 C.ar    1  ZINC000263872566   -0.0800
      6 C6         -9.8693    2.1533   54.5556 C.ar    1  ZINC000263872566   -0.0900
      7 C7         -9.4374    2.5420   55.8098 C.ar    1  ZINC000263872566   -0.1000
      8 C8         -8.0856    2.5686   56.0977 C.ar    1  ZINC000263872566   -0.1100
      9 C9         -7.6145    2.9926   57.4650 C.3     1  ZINC000263872566    0.1800
     10 N10        -8.5073    2.4347   58.4838 N.am    1  ZINC000263872566   -0.7400
     11 C11        -8.3618    1.1545   58.8790 C.2     1  ZINC000263872566    0.7100
     12 O12        -7.4898    0.4625   58.3901 O.2     1  ZINC000263872566   -0.5900
     13 N13        -9.1832    0.6411   59.8164 N.am    1  ZINC000263872566   -0.6300
     14 C14       -10.2454    1.4630   60.4121 C.3     1  ZINC000263872566    0.1100
     15 C15       -11.5802    0.7258   60.2649 C.3     1  ZINC000263872566   -0.1200
     16 C16       -11.4547   -0.6742   60.8699 C.3     1  ZINC000263872566   -0.0800
     17 C17       -12.7760   -1.3901   60.7575 C.2     1  ZINC000263872566    0.4700
     18 O18       -13.6683   -1.1366   61.5317 O.2     1  ZINC000263872566   -0.5000
     19 O19       -12.9616   -2.3094   59.7971 O.3     1  ZINC000263872566   -0.3500
     20 C20       -14.1265   -2.1471   58.9456 C.3     1  ZINC000263872566    0.1200
     21 C21       -14.3414   -0.6607   58.6532 C.3     1  ZINC000263872566   -0.1800
     22 C22       -13.9061   -2.8988   57.6313 C.3     1  ZINC000263872566   -0.1400
     23 C23       -15.3593   -2.7108   59.6548 C.3     1  ZINC000263872566   -0.1800
     24 C24       -10.3815   -1.4632   60.1163 C.3     1  ZINC000263872566   -0.1300
     25 C25        -9.0370   -0.7527   60.2575 C.3     1  ZINC000263872566    0.1300
     26 C26        -7.1658    2.2056   55.1316 C.ar    1  ZINC000263872566   -0.1000
     27 C27        -7.5980    1.8134   53.8786 C.ar    1  ZINC000263872566   -0.1100
     28 H28       -10.3839   -0.4177   52.9451 H       1  ZINC000263872566    0.0700
     29 H29        -9.9743   -0.4532   51.2132 H       1  ZINC000263872566    0.0600
     30 H30        -8.6945   -0.6488   52.4347 H       1  ZINC000263872566    0.0700
     31 H31       -11.3742    1.8094   52.5222 H       1  ZINC000263872566    0.3800
     32 H32       -10.9254    2.1326   54.3306 H       1  ZINC000263872566    0.1300
     33 H33       -10.1559    2.8252   56.5647 H       1  ZINC000263872566    0.1300
     34 H34        -6.6012    2.6265   57.6299 H       1  ZINC000263872566    0.0800
     35 H35        -7.6230    4.0806   57.5309 H       1  ZINC000263872566    0.0800
     36 H36        -9.2031    2.9867   58.8739 H       1  ZINC000263872566    0.4000
     37 H37       -10.0324    1.6256   61.4686 H       1  ZINC000263872566    0.0800
     38 H38       -10.2985    2.4217   59.8960 H       1  ZINC000263872566    0.0800
     39 H39       -12.3609    1.2791   60.7869 H       1  ZINC000263872566    0.0900
     40 H40       -11.8361    0.6440   59.2085 H       1  ZINC000263872566    0.0800
     41 H41       -11.1744   -0.5921   61.9201 H       1  ZINC000263872566    0.1100
     42 H42       -13.4630   -0.2592   58.1478 H       1  ZINC000263872566    0.0600
     43 H43       -15.2158   -0.5389   58.0140 H       1  ZINC000263872566    0.0700
     44 H44       -14.4984   -0.1253   59.5896 H       1  ZINC000263872566    0.0800
     45 H45       -13.7530   -3.9576   57.8395 H       1  ZINC000263872566    0.0700
     46 H46       -14.7805   -2.7769   56.9920 H       1  ZINC000263872566    0.0800
     47 H47       -13.0277   -2.4971   57.1259 H       1  ZINC000263872566    0.0700
     48 H48       -15.5164   -2.1753   60.5912 H       1  ZINC000263872566    0.0800
     49 H49       -16.2337   -2.5890   59.0157 H       1  ZINC000263872566    0.0700
     50 H50       -15.2063   -3.7697   59.8632 H       1  ZINC000263872566    0.0600
     51 H51       -10.3090   -2.4679   60.5327 H       1  ZINC000263872566    0.0900
     52 H52       -10.6486   -1.5244   59.0614 H       1  ZINC000263872566    0.0700
     53 H53        -8.2914   -1.2559   59.6419 H       1  ZINC000263872566    0.1000
     54 H54        -8.7232   -0.7685   61.3012 H       1  ZINC000263872566    0.0700
     55 H55        -6.1097    2.2261   55.3566 H       1  ZINC000263872566    0.1300
     56 H56        -6.8795    1.5299   53.1238 H       1  ZINC000263872566    0.1300
@<TRIPOS>BOND
     1     1     2    1
     2     1    28    1
     3     1    29    1
     4     1    30    1
     5     2     3    1
     6     2     4    1
     7     2     5    1
     8     4    31    1
     9     5    27   ar
    10     5     6   ar
    11     6     7   ar
    12     6    32    1
    13     7     8   ar
    14     7    33    1
    15     8     9    1
    16     8    26   ar
    17     9    10    1
    18     9    34    1
    19     9    35    1
    20    10    11   am
    21    10    36    1
    22    11    12    2
    23    11    13   am
    24    13    25    1
    25    13    14    1
    26    14    15    1
    27    14    37    1
    28    14    38    1
    29    15    16    1
    30    15    39    1
    31    15    40    1
    32    16    17    1
    33    16    24    1
    34    16    41    1
    35    17    18    2
    36    17    19    1
    37    19    20    1
    38    20    21    1
    39    20    22    1
    40    20    23    1
    41    21    42    1
    42    21    43    1
    43    21    44    1
    44    22    45    1
    45    22    46    1
    46    22    47    1
    47    23    48    1
    48    23    49    1
    49    23    50    1
    50    24    25    1
    51    24    51    1
    52    24    52    1
    53    25    53    1
    54    25    54    1
    55    26    27   ar
    56    26    55    1
    57    27    56    1
@<TRIPOS>SUBSTRUCTURE
     1 ZINC000263872566        1 TEMP              0 ****  ****    0 ROOT


##########                                Name:    ZINC000054627026
##########                DOCK_Rotatable_Bonds:                   5
##########                         Heavy_Atoms:                  28
##########                    Molecular_Weight:              370.37
##########                DOCK_Rotatable_Bonds:                   5
##########                       Formal_Charge:         6.85453e-07
##########                     HBond_Acceptors:                   8
##########                        HBond_Donors:                   2
##########                         Heavy_Atoms:                  28
##########                          Grid_Score:          -28.015987
##########                     Grid_vdw_energy:          -27.256889
##########                      Grid_es_energy:           -0.759097
##########           Internal_energy_repulsive:            4.047469

@<TRIPOS>MOLECULE
ZINC000054627026
 42 46 1 0 0
SMALL
USER_CHARGES


@<TRIPOS>ATOM
      1 O1         -2.6999    4.6696   51.3553 O.2     1  ZINC000054627026   -0.5200
      2 C2         -3.2187    3.5728   51.4363 C.2     1  ZINC000054627026    0.6100
      3 N3         -2.6339    2.5062   50.8558 N.am    1  ZINC000054627026   -0.6500
      4 C4         -1.4318    2.6621   50.1545 C.ar    1  ZINC000054627026    0.1400
      5 C5         -0.2264    2.7212   50.8507 C.ar    1  ZINC000054627026   -0.0900
      6 C6          0.9640    2.8741   50.1724 C.ar    1  ZINC000054627026   -0.0900
      7 C7          0.9656    2.9701   48.7884 C.ar    1  ZINC000054627026    0.0500
      8 N8          1.9626    3.1248   47.8410 N.pl3   1  ZINC000054627026   -0.5900
      9 C9          1.3529    3.1559   46.6135 C.2     1  ZINC000054627026    0.3700
     10 C10         2.0482    3.3069   45.3267 C.2     1  ZINC000054627026    0.0200
     11 C11         1.4547    3.4755   44.1111 C.2     1  ZINC000054627026   -0.1200
     12 C12         2.4910    3.5764   43.1654 C.2     1  ZINC000054627026   -0.2200
     13 C13         3.6546    3.4662   43.8393 C.2     1  ZINC000054627026   -0.0100
     14 O14         3.3838    3.3087   45.1438 O.3     1  ZINC000054627026   -0.1700
     15 N15         0.0536    3.0298   46.7609 N.2     1  ZINC000054627026   -0.4600
     16 C16        -0.2464    2.9115   48.0770 C.ar    1  ZINC000054627026    0.0700
     17 C17        -1.4475    2.7509   48.7751 C.ar    1  ZINC000054627026   -0.0900
     18 C18        -4.4847    3.4085   52.1749 C.2     1  ZINC000054627026   -0.1000
     19 C19        -5.3494    2.3577   52.0537 C.2     1  ZINC000054627026    0.1000
     20 N20        -6.3747    2.5963   52.9004 N.pl3   1  ZINC000054627026   -0.3100
     21 C21        -7.4955    1.7797   53.1077 C.ar    1  ZINC000054627026    0.1300
     22 C22        -8.3355    2.0126   54.1882 C.ar    1  ZINC000054627026   -0.1200
     23 C23        -9.4390    1.2068   54.3896 C.ar    1  ZINC000054627026   -0.1000
     24 C24        -9.7075    0.1687   53.5165 C.ar    1  ZINC000054627026   -0.1100
     25 C25        -8.8723   -0.0661   52.4396 C.ar    1  ZINC000054627026   -0.1000
     26 C26        -7.7708    0.7402   52.2296 C.ar    1  ZINC000054627026   -0.1000
     27 N27        -6.1017    3.8179   53.5323 N.2     1  ZINC000054627026   -0.0500
     28 N28        -4.9799    4.2645   53.0855 N.2     1  ZINC000054627026   -0.2000
     29 H29        -3.0456    1.6305   50.9240 H       1  ZINC000054627026    0.4200
     30 H30        -0.2247    2.6471   51.9280 H       1  ZINC000054627026    0.1500
     31 H31         1.8950    2.9195   50.7181 H       1  ZINC000054627026    0.1300
     32 H32         2.9144    3.1982   48.0134 H       1  ZINC000054627026    0.4300
     33 H33         0.3941    3.5218   43.9125 H       1  ZINC000054627026    0.1600
     34 H34         2.3767    3.7156   42.1005 H       1  ZINC000054627026    0.1600
     35 H35         4.6412    3.5022   43.4014 H       1  ZINC000054627026    0.2100
     36 H36        -2.3837    2.6994   48.2389 H       1  ZINC000054627026    0.1400
     37 H37        -5.2355    1.5014   51.4057 H       1  ZINC000054627026    0.2100
     38 H38        -8.1261    2.8228   54.8709 H       1  ZINC000054627026    0.1400
     39 H39       -10.0928    1.3875   55.2300 H       1  ZINC000054627026    0.1400
     40 H40       -10.5707   -0.4603   53.6761 H       1  ZINC000054627026    0.1400
     41 H41        -9.0843   -0.8778   51.7596 H       1  ZINC000054627026    0.1400
     42 H42        -7.1189    0.5564   51.3883 H       1  ZINC000054627026    0.1400
@<TRIPOS>BOND
     1     1     2    2
     2     2     3   am
     3     2    18    1
     4     3     4    1
     5     3    29    1
     6     4    17   ar
     7     4     5   ar
     8     5     6   ar
     9     5    30    1
    10     6     7   ar
    11     6    31    1
    12     7    16   ar
    13     7     8    1
    14     8     9    1
    15     8    32    1
    16     9    10    1
    17     9    15    2
    18    10    14    1
    19    10    11    2
    20    11    12    1
    21    11    33    1
    22    12    13    2
    23    12    34    1
    24    13    14    1
    25    13    35    1
    26    15    16    1
    27    16    17   ar
    28    17    36    1
    29    18    28    1
    30    18    19    2
    31    19    20    1
    32    19    37    1
    33    20    21    1
    34    20    27    1
    35    21    26   ar
    36    21    22   ar
    37    22    23   ar
    38    22    38    1
    39    23    24   ar
    40    23    39    1
    41    24    25   ar
    42    24    40    1
    43    25    26   ar
    44    25    41    1
    45    26    42    1
    46    27    28    2
@<TRIPOS>SUBSTRUCTURE
     1 ZINC000054627026        1 TEMP              0 ****  ****    0 ROOT


##########                                Name:    ZINC000350493047
##########                DOCK_Rotatable_Bonds:                   7
##########                         Heavy_Atoms:                  24
##########                    Molecular_Weight:             330.387
##########                DOCK_Rotatable_Bonds:                   7
##########                       Formal_Charge:          -0.0300002
##########                     HBond_Acceptors:                   7
##########                        HBond_Donors:                   3
##########                         Heavy_Atoms:                  24
##########                          Grid_Score:          -28.010628
##########                     Grid_vdw_energy:          -27.296293
##########                      Grid_es_energy:           -0.714335
##########           Internal_energy_repulsive:            7.564453

@<TRIPOS>MOLECULE
ZINC000350493047
 46 48 1 0 0
SMALL
USER_CHARGES


@<TRIPOS>ATOM
      1 C1         -0.6806    4.6906   50.7735 C.3     1  <0>        -0.1600
      2 C2         -1.4266    3.3975   50.4382 C.3     1  <0>         0.2600
      3 H3         -0.8701    2.5454   50.8287 H       1  <0>         0.1200
      4 N4         -1.5561    3.2714   48.9844 N.am    1  <0>        -0.7400
      5 C5         -1.2410    2.1099   48.3780 C.2     1  <0>         0.7100
      6 N6         -1.3618    1.9933   47.0407 N.am    1  <0>        -0.8600
      7 O7         -0.8477    1.1669   49.0372 O.2     1  <0>        -0.5900
      8 C8         -2.7972    3.4316   51.0637 C.2     1  <0>         0.1700
      9 N9         -3.3559    4.4586   51.6329 N.2     1  <0>        -0.3800
     10 O10        -4.4619    4.1699   52.0387 O.3     1  <0>         0.0900
     11 C11        -4.7255    2.8842   51.7573 C.2     1  <0>         0.2400
     12 C12        -5.9623    2.1458   52.0820 C.ar    1  <0>        -0.0800
     13 C13        -6.8591    2.6606   53.0211 C.ar    1  <0>        -0.0200
     14 C14        -8.0120    1.9688   53.3213 C.ar    1  <0>        -0.2200
     15 C15        -8.2830    0.7602   52.6915 C.ar    1  <0>         0.1700
     16 O16        -9.4201    0.0812   52.9904 O.3     1  <0>        -0.3000
     17 C17       -10.6508    0.8007   52.8904 C.3     1  <0>         0.0800
     18 C18       -11.0400    0.9430   51.4177 C.3     1  <0>        -0.1500
     19 C19       -12.3576    1.7133   51.3106 C.3     1  <0>        -0.1200
     20 C20       -13.4553    0.9526   52.0569 C.3     1  <0>        -0.1300
     21 C21       -13.0660    0.8101   53.5298 C.3     1  <0>        -0.1200
     22 C22       -11.7484    0.0398   53.6369 C.3     1  <0>        -0.1200
     23 C23        -7.3938    0.2450   51.7565 C.ar    1  <0>        -0.1600
     24 C24        -6.2416    0.9336   51.4465 C.ar    1  <0>        -0.0300
     25 N25        -3.6640    2.4091   51.1286 N.2     1  <0>        -0.4700
     26 H26        -1.2370    5.5426   50.3831 H       1  <0>         0.0600
     27 H27        -0.5842    4.7844   51.8552 H       1  <0>         0.0700
     28 H28         0.3107    4.6659   50.3211 H       1  <0>         0.0800
     29 H29        -1.8688    4.0240   48.4583 H       1  <0>         0.4000
     30 H30        -1.1360    1.1569   46.6044 H       1  <0>         0.4000
     31 H31        -1.6744    2.7458   46.5145 H       1  <0>         0.4200
     32 H32        -6.6488    3.5996   53.5115 H       1  <0>         0.1400
     33 H33        -8.7059    2.3661   54.0472 H       1  <0>         0.1400
     34 H34       -10.5300    1.7901   53.3316 H       1  <0>         0.0800
     35 H35       -10.2580    1.4851   50.8859 H       1  <0>         0.0700
     36 H36       -11.1607   -0.0464   50.9764 H       1  <0>         0.0800
     37 H37       -12.2369    2.7027   51.7518 H       1  <0>         0.0600
     38 H38       -12.6350    1.8148   50.2613 H       1  <0>         0.0700
     39 H39       -14.3940    1.5013   51.9807 H       1  <0>         0.0700
     40 H40       -13.5760   -0.0369   51.6158 H       1  <0>         0.0700
     41 H41       -12.9453    1.7995   53.9709 H       1  <0>         0.0700
     42 H42       -13.8480    0.2681   54.0615 H       1  <0>         0.0700
     43 H43       -11.8691   -0.9496   53.1956 H       1  <0>         0.0800
     44 H44       -11.4711   -0.0616   54.6861 H       1  <0>         0.0700
     45 H45        -7.6082   -0.6946   51.2689 H       1  <0>         0.1400
     46 H46        -5.5510    0.5326   50.7193 H       1  <0>         0.1400
@<TRIPOS>BOND
     1     1     2    1
     2     1    26    1
     3     1    27    1
     4     1    28    1
     5     2     3    1
     6     2     4    1
     7     2     8    1
     8     4     5   am
     9     4    29    1
    10     5     6   am
    11     5     7    2
    12     6    30    1
    13     6    31    1
    14     8    25    1
    15     8     9    2
    16     9    10    1
    17    10    11    1
    18    11    12    1
    19    11    25    2
    20    12    24   ar
    21    12    13   ar
    22    13    14   ar
    23    13    32    1
    24    14    15   ar
    25    14    33    1
    26    15    16    1
    27    15    23   ar
    28    16    17    1
    29    17    22    1
    30    17    18    1
    31    17    34    1
    32    18    19    1
    33    18    35    1
    34    18    36    1
    35    19    20    1
    36    19    37    1
    37    19    38    1
    38    20    21    1
    39    20    39    1
    40    20    40    1
    41    21    22    1
    42    21    41    1
    43    21    42    1
    44    22    43    1
    45    22    44    1
    46    23    24   ar
    47    23    45    1
    48    24    46    1
@<TRIPOS>SUBSTRUCTURE
     1 <0>         1 TEMP              0 ****  ****    0 ROOT


##########                                Name:    ZINC000464752079
##########                DOCK_Rotatable_Bonds:                   7
##########                         Heavy_Atoms:                  29
##########                    Molecular_Weight:             404.413
##########                DOCK_Rotatable_Bonds:                   7
##########                       Formal_Charge:         7.45058e-08
##########                     HBond_Acceptors:                   8
##########                        HBond_Donors:                   1
##########                         Heavy_Atoms:                  29
##########                          Grid_Score:          -27.970861
##########                     Grid_vdw_energy:          -27.761826
##########                      Grid_es_energy:           -0.209036
##########           Internal_energy_repulsive:           17.006413

@<TRIPOS>MOLECULE
ZINC000464752079
 51 54 1 0 0
SMALL
USER_CHARGES


@<TRIPOS>ATOM
      1 C1         -7.4509    1.9520   56.8397 C.3     1  ZINC000464752079   -0.1200
      2 C2         -8.4980    2.6498   57.6691 C.ar    1  ZINC000464752079   -0.0800
      3 C3         -8.6489    4.0207   57.5808 C.ar    1  ZINC000464752079   -0.1200
      4 C4         -9.6095    4.6609   58.3417 C.ar    1  ZINC000464752079   -0.1200
      5 C5        -10.4189    3.9299   59.1906 C.ar    1  ZINC000464752079   -0.1300
      6 C6        -10.2686    2.5583   59.2783 C.ar    1  ZINC000464752079   -0.0900
      7 C7         -9.3112    1.9178   58.5143 C.ar    1  ZINC000464752079   -0.0800
      8 C8         -9.1473    0.4228   58.6099 C.3     1  ZINC000464752079    0.2000
      9 H9         -8.8029    0.0260   57.6549 H       1  ZINC000464752079    0.0900
     10 C10        -8.1320    0.0760   59.7192 C.3     1  ZINC000464752079   -0.1200
     11 C11        -8.7461   -1.1925   60.3681 C.3     1  ZINC000464752079   -0.1300
     12 C12       -10.2620   -0.8879   60.2726 C.3     1  ZINC000464752079    0.1000
     13 N13       -10.4285   -0.1982   58.9766 N.am    1  ZINC000464752079   -0.6300
     14 C14       -11.5657   -0.1458   58.2551 C.2     1  ZINC000464752079    0.7200
     15 O15       -11.5871    0.4525   57.1969 O.2     1  ZINC000464752079   -0.5700
     16 N16       -12.6791   -0.7563   58.7068 N.am    1  ZINC000464752079   -0.7400
     17 C17       -13.9146   -0.7007   57.9217 C.3     1  ZINC000464752079    0.1900
     18 C18       -14.4724   -2.0918   57.7637 C.ar    1  ZINC000464752079   -0.1200
     19 C19       -14.1920   -2.8225   56.6245 C.ar    1  ZINC000464752079   -0.0500
     20 C20       -14.7036   -4.1013   56.4760 C.ar    1  ZINC000464752079    0.0100
     21 C21       -15.5011   -4.6509   57.4766 C.ar    1  ZINC000464752079    0.0800
     22 C22       -15.7798   -3.9171   58.6180 C.ar    1  ZINC000464752079   -0.1800
     23 C23       -15.2618   -2.6393   58.7641 C.ar    1  ZINC000464752079    0.1400
     24 O24       -15.5352   -1.9192   59.8847 O.3     1  ZINC000464752079   -0.3100
     25 C25       -14.6694   -2.1096   61.0055 C.3     1  ZINC000464752079    0.4100
     26 F26       -14.7925   -1.0242   61.8796 F       1  ZINC000464752079   -0.2000
     27 F27       -15.0219   -3.2878   61.6723 F       1  ZINC000464752079   -0.2000
     28 O28       -15.8758   -5.9069   57.0953 O.3     1  ZINC000464752079   -0.3000
     29 C29       -15.6393   -5.9650   55.6763 C.3     1  ZINC000464752079    0.2100
     30 O30       -14.5787   -5.0138   55.4672 O.3     1  ZINC000464752079   -0.3000
     31 H31        -7.8802    1.6639   55.8800 H       1  ZINC000464752079    0.0700
     32 H32        -6.6102    2.6256   56.6740 H       1  ZINC000464752079    0.0700
     33 H33        -7.1052    1.0616   57.3649 H       1  ZINC000464752079    0.0700
     34 H34        -8.0163    4.5920   56.9175 H       1  ZINC000464752079    0.1200
     35 H35        -9.7269    5.7324   58.2732 H       1  ZINC000464752079    0.1200
     36 H36       -11.1688    4.4300   59.7855 H       1  ZINC000464752079    0.1200
     37 H37       -10.9009    1.9871   59.9417 H       1  ZINC000464752079    0.1100
     38 H38        -7.1539   -0.1446   59.2916 H       1  ZINC000464752079    0.0900
     39 H39        -8.0629    0.8857   60.4455 H       1  ZINC000464752079    0.0800
     40 H40        -8.4904   -2.0857   59.7982 H       1  ZINC000464752079    0.0800
     41 H41        -8.4321   -1.2908   61.4074 H       1  ZINC000464752079    0.0900
     42 H42       -10.8365   -1.8142   60.2844 H       1  ZINC000464752079    0.0700
     43 H43       -10.5708   -0.2385   61.0917 H       1  ZINC000464752079    0.0700
     44 H44       -12.6622   -1.2326   59.5517 H       1  ZINC000464752079    0.4000
     45 H45       -14.6433   -0.0732   58.4350 H       1  ZINC000464752079    0.0800
     46 H46       -13.7020   -0.2807   56.9387 H       1  ZINC000464752079    0.0800
     47 H47       -13.5735   -2.3958   55.8488 H       1  ZINC000464752079    0.1500
     48 H48       -16.3981   -4.3414   59.3953 H       1  ZINC000464752079    0.1500
     49 H49       -13.6382   -2.1825   60.6597 H       1  ZINC000464752079    0.1900
     50 H50       -15.3206   -6.9649   55.3817 H       1  ZINC000464752079    0.1400
     51 H51       -16.5329   -5.6692   55.1266 H       1  ZINC000464752079    0.0900
@<TRIPOS>BOND
     1     1     2    1
     2     1    31    1
     3     1    32    1
     4     1    33    1
     5     2     7   ar
     6     2     3   ar
     7     3     4   ar
     8     3    34    1
     9     4     5   ar
    10     4    35    1
    11     5     6   ar
    12     5    36    1
    13     6     7   ar
    14     6    37    1
    15     7     8    1
    16     8     9    1
    17     8    13    1
    18     8    10    1
    19    10    11    1
    20    10    38    1
    21    10    39    1
    22    11    12    1
    23    11    40    1
    24    11    41    1
    25    12    13    1
    26    12    42    1
    27    12    43    1
    28    13    14   am
    29    14    15    2
    30    14    16   am
    31    16    17    1
    32    16    44    1
    33    17    18    1
    34    17    45    1
    35    17    46    1
    36    18    23   ar
    37    18    19   ar
    38    19    20   ar
    39    19    47    1
    40    20    30    1
    41    20    21   ar
    42    21    22   ar
    43    21    28    1
    44    22    23   ar
    45    22    48    1
    46    23    24    1
    47    24    25    1
    48    25    26    1
    49    25    27    1
    50    25    49    1
    51    28    29    1
    52    29    30    1
    53    29    50    1
    54    29    51    1
@<TRIPOS>SUBSTRUCTURE
     1 ZINC000464752079        1 TEMP              0 ****  ****    0 ROOT


##########                                Name:    ZINC001217683559
##########                DOCK_Rotatable_Bonds:                   3
##########                         Heavy_Atoms:                  25
##########                    Molecular_Weight:             397.234
##########                DOCK_Rotatable_Bonds:                   3
##########                       Formal_Charge:          0.00999987
##########                     HBond_Acceptors:                   7
##########                        HBond_Donors:                   0
##########                         Heavy_Atoms:                  25
##########                          Grid_Score:          -27.946993
##########                     Grid_vdw_energy:          -28.306671
##########                      Grid_es_energy:            0.359678
##########           Internal_energy_repulsive:           10.717539

@<TRIPOS>MOLECULE
ZINC001217683559
 38 42 1 0 0
SMALL
USER_CHARGES


@<TRIPOS>ATOM
      1 Br1         1.6943    3.0274   52.0806 Br      1  ZINC001217683559    0.0100
      2 C2          1.5924    2.0559   50.4614 C.ar    1  ZINC001217683559   -0.1200
      3 C3          2.7163    1.4314   49.9445 C.ar    1  ZINC001217683559   -0.0500
      4 C4          2.5948    0.7300   48.7542 C.ar    1  ZINC001217683559   -0.1500
      5 C5          1.3656    0.6741   48.1222 C.ar    1  ZINC001217683559    0.1200
      6 N6          0.3131    1.2773   48.6352 N.ar    1  ZINC001217683559   -0.4400
      7 C7          0.3847    1.9529   49.7739 C.ar    1  ZINC001217683559    0.2200
      8 C8         -0.8287    2.6168   50.3139 C.2     1  ZINC001217683559    0.2100
      9 N9         -0.9014    3.8365   50.7810 N.2     1  ZINC001217683559   -0.3300
     10 O10        -2.0316    4.0817   51.1459 O.3     1  ZINC001217683559    0.1000
     11 C11        -2.8191    3.0137   50.9437 C.2     1  ZINC001217683559    0.2300
     12 C12        -4.2595    2.9105   51.2555 C.2     1  ZINC001217683559   -0.0600
     13 C13        -4.8902    1.7006   51.1829 C.2     1  ZINC001217683559    0.1800
     14 N14        -6.2121    1.5970   51.4673 N.pl3   1  ZINC001217683559   -0.2900
     15 N15        -7.1069    0.5174   51.4782 N.2     1  ZINC001217683559   -0.3300
     16 C16        -8.2783    0.9913   51.8315 C.2     1  ZINC001217683559    0.2800
     17 C17        -9.5375    0.1758   51.9741 C.3     1  ZINC001217683559   -0.0300
     18 C18        -9.7392   -0.4047   53.3839 C.3     1  ZINC001217683559   -0.1200
     19 C19       -11.2303   -0.0634   53.2258 C.3     1  ZINC001217683559   -0.1400
     20 C20       -10.7949    1.0237   52.2289 C.3     1  ZINC001217683559   -0.1200
     21 N21        -8.1853    2.2964   52.0449 N.2     1  ZINC001217683559   -0.5300
     22 C22        -6.9376    2.6971   51.8312 C.2     1  ZINC001217683559    0.2900
     23 C23        -6.3118    3.9562   51.9142 C.2     1  ZINC001217683559   -0.1000
     24 C24        -4.9865    4.0633   51.6353 C.2     1  ZINC001217683559   -0.0200
     25 N25        -2.0609    2.0751   50.4077 N.2     1  ZINC001217683559   -0.4300
     26 H26         3.6653    1.4900   50.4567 H       1  ZINC001217683559    0.1600
     27 H27         3.4517    0.2324   48.3246 H       1  ZINC001217683559    0.1500
     28 H28         1.2676    0.1287   47.1952 H       1  ZINC001217683559    0.1800
     29 H29        -4.3324    0.8212   50.8967 H       1  ZINC001217683559    0.1900
     30 H30        -9.6596   -0.5574   51.1770 H       1  ZINC001217683559    0.1200
     31 H31        -9.5406   -1.4746   53.4479 H       1  ZINC001217683559    0.0700
     32 H32        -9.2410    0.1669   54.1668 H       1  ZINC001217683559    0.1000
     33 H33       -11.8155   -0.8630   52.7717 H       1  ZINC001217683559    0.0800
     34 H34       -11.6859    0.3333   54.1330 H       1  ZINC001217683559    0.0800
     35 H35       -10.5854    1.9860   52.6962 H       1  ZINC001217683559    0.0900
     36 H36       -11.4487    1.1071   51.3607 H       1  ZINC001217683559    0.0700
     37 H37        -6.8800    4.8288   52.2008 H       1  ZINC001217683559    0.1700
     38 H38        -4.4937    5.0223   51.6949 H       1  ZINC001217683559    0.1700
@<TRIPOS>BOND
     1     1     2    1
     2     2     7   ar
     3     2     3   ar
     4     3     4   ar
     5     3    26    1
     6     4     5   ar
     7     4    27    1
     8     5     6   ar
     9     5    28    1
    10     6     7   ar
    11     7     8    1
    12     8    25    1
    13     8     9    2
    14     9    10    1
    15    10    11    1
    16    11    12    1
    17    11    25    2
    18    12    24    1
    19    12    13    2
    20    13    14    1
    21    13    29    1
    22    14    22    1
    23    14    15    1
    24    15    16    2
    25    16    17    1
    26    16    21    1
    27    17    20    1
    28    17    18    1
    29    17    30    1
    30    18    19    1
    31    18    31    1
    32    18    32    1
    33    19    20    1
    34    19    33    1
    35    19    34    1
    36    20    35    1
    37    20    36    1
    38    21    22    2
    39    22    23    1
    40    23    24    2
    41    23    37    1
    42    24    38    1
@<TRIPOS>SUBSTRUCTURE
     1 ZINC001217683559        1 TEMP              0 ****  ****    0 ROOT


##########                                Name:    ZINC000558052810
##########                DOCK_Rotatable_Bonds:                   9
##########                         Heavy_Atoms:                  30
##########                    Molecular_Weight:             424.524
##########                DOCK_Rotatable_Bonds:                   9
##########                       Formal_Charge:          -0.0200002
##########                     HBond_Acceptors:                   8
##########                        HBond_Donors:                   1
##########                         Heavy_Atoms:                  30
##########                          Grid_Score:          -27.888611
##########                     Grid_vdw_energy:          -27.937059
##########                      Grid_es_energy:            0.048448
##########           Internal_energy_repulsive:           19.780294

@<TRIPOS>MOLECULE
ZINC000558052810
 54 56 1 0 0
SMALL
USER_CHARGES


@<TRIPOS>ATOM
      1 C1        -12.1656    3.4697   46.1993 C.3     1  ZINC000558052810   -0.1700
      2 C2        -12.5155    2.0149   46.5189 C.3     1  ZINC000558052810    0.1100
      3 N3        -13.0987    1.9364   47.8606 N.am    1  ZINC000558052810   -0.6100
      4 C4        -13.8568    3.0694   48.3972 C.3     1  ZINC000558052810    0.0700
      5 C5        -12.9378    0.8219   48.6011 C.2     1  ZINC000558052810    0.5600
      6 O6        -12.3090   -0.1182   48.1558 O.2     1  ZINC000558052810   -0.5300
      7 C7        -13.5265    0.7427   49.9552 C.ar    1  ZINC000558052810   -0.1100
      8 C8        -14.8854    0.4662   50.1129 C.ar    1  ZINC000558052810   -0.1100
      9 C9        -15.4325    0.3929   51.3780 C.ar    1  ZINC000558052810   -0.1000
     10 C10       -14.6390    0.5929   52.4917 C.ar    1  ZINC000558052810   -0.1300
     11 C11       -13.2847    0.8693   52.3454 C.ar    1  ZINC000558052810    0.1400
     12 N12       -12.4859    1.0716   53.4758 N.am    1  ZINC000558052810   -0.6600
     13 C13       -11.7208    0.0678   53.9487 C.2     1  ZINC000558052810    0.5600
     14 O14       -11.7248   -1.0137   53.3925 O.2     1  ZINC000558052810   -0.4800
     15 C15       -10.8794    0.2809   55.1395 C.ar    1  ZINC000558052810   -0.1900
     16 C16        -9.7295    1.0753   55.0669 C.ar    1  ZINC000558052810   -0.0200
     17 C17        -8.9734    1.2441   56.2134 C.ar    1  ZINC000558052810   -0.1900
     18 C18        -9.3698    0.6298   57.3881 C.ar    1  ZINC000558052810    0.1500
     19 N19       -10.4563   -0.1155   57.4372 N.ar    1  ZINC000558052810   -0.4900
     20 C20       -11.2202   -0.3057   56.3716 C.ar    1  ZINC000558052810    0.1600
     21 S21       -12.6614   -1.3120   56.4946 S.3     1  ZINC000558052810    0.0600
     22 C22       -12.0760   -2.5569   57.6709 C.3     1  ZINC000558052810   -0.0700
     23 C23       -12.8519   -2.4368   58.9572 C.2     1  ZINC000558052810   -0.2000
     24 C24       -12.3774   -2.1558   60.1943 C.2     1  ZINC000558052810   -0.0100
     25 C25       -10.9420   -1.8959   60.5725 C.3     1  ZINC000558052810   -0.0800
     26 O26       -13.4366   -2.1545   61.0158 O.3     1  ZINC000558052810    0.1000
     27 N27       -14.4609   -2.3970   60.4207 N.2     1  ZINC000558052810   -0.3600
     28 C28       -14.2445   -2.5850   59.1509 C.2     1  ZINC000558052810    0.0300
     29 C29       -15.2733   -2.9067   58.0977 C.3     1  ZINC000558052810   -0.0800
     30 C30       -12.7242    0.9385   51.0794 C.ar    1  ZINC000558052810   -0.0700
     31 H31       -13.0692    4.0779   46.2388 H       1  ZINC000558052810    0.0600
     32 H32       -11.4465    3.8394   46.9302 H       1  ZINC000558052810    0.0600
     33 H33       -11.7316    3.5280   45.2011 H       1  ZINC000558052810    0.0700
     34 H34       -13.2346    1.6452   45.7880 H       1  ZINC000558052810    0.0800
     35 H35       -11.6118    1.4067   46.4794 H       1  ZINC000558052810    0.0800
     36 H36       -14.8918    3.0057   48.0614 H       1  ZINC000558052810    0.0600
     37 H37       -13.8259    3.0439   49.4864 H       1  ZINC000558052810    0.0800
     38 H38       -13.4167    4.0015   48.0429 H       1  ZINC000558052810    0.0700
     39 H39       -15.5090    0.3100   49.2451 H       1  ZINC000558052810    0.1400
     40 H40       -16.4843    0.1789   51.4979 H       1  ZINC000558052810    0.1400
     41 H41       -15.0729    0.5347   53.4791 H       1  ZINC000558052810    0.1300
     42 H42       -12.4828    1.9342   53.9194 H       1  ZINC000558052810    0.4100
     43 H43        -9.4393    1.5448   54.1386 H       1  ZINC000558052810    0.1400
     44 H44        -8.0802    1.8506   56.1914 H       1  ZINC000558052810    0.1500
     45 H45        -8.7779    0.7631   58.2816 H       1  ZINC000558052810    0.1700
     46 H46       -12.2222   -3.5517   57.2499 H       1  ZINC000558052810    0.1000
     47 H47       -11.0160   -2.3988   57.8699 H       1  ZINC000558052810    0.1000
     48 H48       -10.7312   -0.8298   60.4877 H       1  ZINC000558052810    0.0900
     49 H49       -10.7726   -2.2192   61.5995 H       1  ZINC000558052810    0.0900
     50 H50       -10.2838   -2.4507   59.9037 H       1  ZINC000558052810    0.0900
     51 H51       -15.6594   -1.9804   57.6720 H       1  ZINC000558052810    0.0800
     52 H52       -14.8131   -3.5042   57.3108 H       1  ZINC000558052810    0.0800
     53 H53       -16.0917   -3.4681   58.5486 H       1  ZINC000558052810    0.0800
     54 H54       -11.6721    1.1528   50.9636 H       1  ZINC000558052810    0.1500
@<TRIPOS>BOND
     1     1     2    1
     2     1    31    1
     3     1    32    1
     4     1    33    1
     5     2     3    1
     6     2    34    1
     7     2    35    1
     8     3     4    1
     9     3     5   am
    10     4    36    1
    11     4    37    1
    12     4    38    1
    13     5     6    2
    14     5     7    1
    15     7    30   ar
    16     7     8   ar
    17     8     9   ar
    18     8    39    1
    19     9    10   ar
    20     9    40    1
    21    10    11   ar
    22    10    41    1
    23    11    12    1
    24    11    30   ar
    25    12    13   am
    26    12    42    1
    27    13    14    2
    28    13    15    1
    29    15    20   ar
    30    15    16   ar
    31    16    17   ar
    32    16    43    1
    33    17    18   ar
    34    17    44    1
    35    18    19   ar
    36    18    45    1
    37    19    20   ar
    38    20    21    1
    39    21    22    1
    40    22    23    1
    41    22    46    1
    42    22    47    1
    43    23    28    1
    44    23    24    2
    45    24    25    1
    46    24    26    1
    47    25    48    1
    48    25    49    1
    49    25    50    1
    50    26    27    1
    51    27    28    2
    52    28    29    1
    53    29    51    1
    54    29    52    1
    55    29    53    1
    56    30    54    1
@<TRIPOS>SUBSTRUCTURE
     1 ZINC000558052810        1 TEMP              0 ****  ****    0 ROOT


##########                                Name:    ZINC001078110631
##########                DOCK_Rotatable_Bonds:                   7
##########                         Heavy_Atoms:                  25
##########                    Molecular_Weight:             353.369
##########                DOCK_Rotatable_Bonds:                   7
##########                       Formal_Charge:           0.0100006
##########                     HBond_Acceptors:                   8
##########                        HBond_Donors:                   2
##########                         Heavy_Atoms:                  25
##########                          Grid_Score:          -27.884338
##########                     Grid_vdw_energy:          -26.830647
##########                      Grid_es_energy:           -1.053691
##########           Internal_energy_repulsive:            7.056233

@<TRIPOS>MOLECULE
ZINC001078110631
 46 48 1 0 0
SMALL
USER_CHARGES


@<TRIPOS>ATOM
      1 O1        -10.2075   -2.9745   58.1411 O.2     1  ZINC001078110631   -0.5100
      2 C2        -10.3286   -1.7842   58.3579 C.2     1  ZINC001078110631    0.5600
      3 N3        -10.8762   -0.9814   57.4240 N.am    1  ZINC001078110631   -0.7200
      4 C4        -11.3199   -1.5420   56.1452 C.3     1  ZINC001078110631    0.1500
      5 H5        -10.9291   -2.5516   56.0192 H       1  ZINC001078110631    0.1200
      6 C6        -10.8638   -0.6408   54.9777 C.3     1  ZINC001078110631    0.0300
      7 N7        -11.9895   -0.6848   54.0091 N.3     1  ZINC001078110631   -0.5000
      8 C8        -11.9490    0.4702   53.1022 C.3     1  ZINC001078110631    0.0300
      9 C9        -11.0458    0.1505   51.9093 C.3     1  ZINC001078110631    0.1300
     10 N10        -9.7699    0.8543   52.0603 N.am    1  ZINC001078110631   -0.6200
     11 C11        -8.4849    0.1932   52.3169 C.3     1  ZINC001078110631    0.1000
     12 C12        -7.4053    1.2415   51.9677 C.3     1  ZINC001078110631   -0.1300
     13 C13        -8.1738    2.5670   52.1757 C.3     1  ZINC001078110631   -0.1600
     14 C14        -9.6248    2.1880   51.9762 C.2     1  ZINC001078110631    0.5200
     15 O15       -10.5269    2.9736   51.7766 O.2     1  ZINC001078110631   -0.5200
     16 C16       -13.2058   -0.6500   54.8614 C.3     1  ZINC001078110631    0.0000
     17 C17       -12.8607   -1.5505   56.0699 C.3     1  ZINC001078110631    0.1000
     18 H18       -13.2865   -1.1369   56.9840 H       1  ZINC001078110631    0.0700
     19 O19       -13.3445   -2.8777   55.8541 O.3     1  ZINC001078110631   -0.5500
     20 C20        -9.8816   -1.2196   59.6460 C.ar    1  ZINC001078110631   -0.1900
     21 C21        -8.5481   -1.3462   60.0423 C.ar    1  ZINC001078110631   -0.0300
     22 C22        -8.1360   -0.8173   61.2460 C.ar    1  ZINC001078110631   -0.1700
     23 C23        -9.0415   -0.1593   62.0653 C.ar    1  ZINC001078110631    0.1600
     24 F24        -8.6302    0.3567   63.2442 F       1  ZINC001078110631   -0.1200
     25 C25       -10.3658   -0.0288   61.6799 C.ar    1  ZINC001078110631   -0.2000
     26 C26       -10.7906   -0.5502   60.4730 C.ar    1  ZINC001078110631    0.2000
     27 F27       -12.0820   -0.4229   60.0971 F       1  ZINC001078110631   -0.1000
     28 H28       -10.9765   -0.0325   57.5986 H       1  ZINC001078110631    0.4000
     29 H29       -10.7015    0.3792   55.3258 H       1  ZINC001078110631    0.0500
     30 H30        -9.9559   -1.0376   54.5236 H       1  ZINC001078110631    0.1000
     31 H31       -12.9560    0.6889   52.7473 H       1  ZINC001078110631    0.0400
     32 H32       -11.5552    1.3362   53.6342 H       1  ZINC001078110631    0.0800
     33 H33       -10.8655   -0.9237   51.8677 H       1  ZINC001078110631    0.0900
     34 H34       -11.5321    0.4731   50.9887 H       1  ZINC001078110631    0.0800
     35 H35        -8.4096   -0.0905   53.3665 H       1  ZINC001078110631    0.0700
     36 H36        -8.3784   -0.6846   51.6795 H       1  ZINC001078110631    0.0800
     37 H37        -6.5580    1.1709   52.6497 H       1  ZINC001078110631    0.0900
     38 H38        -7.0806    1.1372   50.9324 H       1  ZINC001078110631    0.0800
     39 H39        -8.0104    2.9487   53.1835 H       1  ZINC001078110631    0.1100
     40 H40        -7.8698    3.3049   51.4332 H       1  ZINC001078110631    0.1000
     41 H41       -13.4099    0.3685   55.1912 H       1  ZINC001078110631    0.0600
     42 H42       -14.0612   -1.0537   54.3197 H       1  ZINC001078110631    0.0900
     43 H43       -14.3005   -2.9307   55.7191 H       1  ZINC001078110631    0.3800
     44 H44        -7.8413   -1.8582   59.4063 H       1  ZINC001078110631    0.1500
     45 H45        -7.1051   -0.9154   61.5524 H       1  ZINC001078110631    0.1500
     46 H46       -11.0663    0.4844   62.3221 H       1  ZINC001078110631    0.1600
@<TRIPOS>BOND
     1     1     2    2
     2     2     3   am
     3     2    20    1
     4     3     4    1
     5     3    28    1
     6     4     5    1
     7     4    17    1
     8     4     6    1
     9     6     7    1
    10     6    29    1
    11     6    30    1
    12     7     8    1
    13     7    16    1
    14     8     9    1
    15     8    31    1
    16     8    32    1
    17     9    10    1
    18     9    33    1
    19     9    34    1
    20    10    14   am
    21    10    11    1
    22    11    12    1
    23    11    35    1
    24    11    36    1
    25    12    13    1
    26    12    37    1
    27    12    38    1
    28    13    14    1
    29    13    39    1
    30    13    40    1
    31    14    15    2
    32    16    17    1
    33    16    41    1
    34    16    42    1
    35    17    18    1
    36    17    19    1
    37    19    43    1
    38    20    26   ar
    39    20    21   ar
    40    21    22   ar
    41    21    44    1
    42    22    23   ar
    43    22    45    1
    44    23    24    1
    45    23    25   ar
    46    25    26   ar
    47    25    46    1
    48    26    27    1
@<TRIPOS>SUBSTRUCTURE
     1 ZINC001078110631        1 TEMP              0 ****  ****    0 ROOT


##########                                Name:    ZINC000281092425
##########                DOCK_Rotatable_Bonds:                   8
##########                         Heavy_Atoms:                  23
##########                    Molecular_Weight:             332.304
##########                DOCK_Rotatable_Bonds:                   8
##########                       Formal_Charge:         2.98023e-08
##########                     HBond_Acceptors:                   9
##########                        HBond_Donors:                   2
##########                         Heavy_Atoms:                  23
##########                          Grid_Score:          -27.873896
##########                     Grid_vdw_energy:          -25.956968
##########                      Grid_es_energy:           -1.916927
##########           Internal_energy_repulsive:           14.600080

@<TRIPOS>MOLECULE
ZINC000281092425
 41 42 1 0 0
SMALL
USER_CHARGES


@<TRIPOS>ATOM
      1 O1         -1.5130    1.9206   46.8897 O.2     1  ZINC000281092425   -0.1800
      2 N2         -0.7135    2.1128   47.7883 N.pl3   1  ZINC000281092425    0.0400
      3 O3          0.4766    1.9452   47.5907 O.2     1  ZINC000281092425   -0.1500
      4 C4         -1.1876    2.5559   49.1185 C.ar    1  ZINC000281092425   -0.1200
      5 C5         -2.5379    2.7458   49.3416 C.ar    1  ZINC000281092425    0.0200
      6 C6         -2.9845    3.1593   50.5819 C.ar    1  ZINC000281092425   -0.2200
      7 C7         -2.0759    3.3849   51.6084 C.ar    1  ZINC000281092425    0.3000
      8 N8         -2.5270    3.8026   52.8625 N.pl3   1  ZINC000281092425   -0.7200
      9 C9         -3.3774    2.9208   53.6660 C.3     1  ZINC000281092425    0.1200
     10 C10        -3.5018    3.4846   55.0829 C.3     1  ZINC000281092425   -0.0900
     11 H11        -3.3433    4.5627   55.0602 H       1  ZINC000281092425    0.0900
     12 C12        -4.8991    3.1859   55.6298 C.3     1  ZINC000281092425    0.0800
     13 O13        -5.4699    4.3844   56.1587 O.3     1  ZINC000281092425   -0.5700
     14 C14        -2.4512    2.8337   55.9848 C.3     1  ZINC000281092425   -0.1100
     15 H15        -2.5103    1.7468   55.9245 H       1  ZINC000281092425    0.0900
     16 C16        -1.0256    3.3307   55.6206 C.3     1  ZINC000281092425   -0.1600
     17 C17        -0.3038    3.1782   56.9832 C.3     1  ZINC000281092425    0.0500
     18 O18        -1.2883    3.5252   57.9699 O.3     1  ZINC000281092425   -0.3900
     19 C19        -2.6074    3.3122   57.4442 C.3     1  ZINC000281092425    0.0700
     20 C20        -0.7188    3.1942   51.3860 C.ar    1  ZINC000281092425   -0.2800
     21 C21        -0.2756    2.7747   50.1418 C.ar    1  ZINC000281092425    0.2300
     22 O22         1.0521    2.5866   49.9210 O.3     1  ZINC000281092425   -0.2900
     23 C23         1.6911    1.5429   50.6588 C.3     1  ZINC000281092425    0.4100
     24 F24         1.9114    0.4457   49.8191 F       1  ZINC000281092425   -0.1900
     25 F25         2.9154    2.0042   51.1543 F       1  ZINC000281092425   -0.1900
     26 H26        -3.2456    2.5708   48.5448 H       1  ZINC000281092425    0.1600
     27 H27        -4.0403    3.3076   50.7536 H       1  ZINC000281092425    0.1500
     28 H28        -2.2772    4.6763   53.2015 H       1  ZINC000281092425    0.4100
     29 H29        -4.3664    2.8575   53.2121 H       1  ZINC000281092425    0.0800
     30 H30        -2.9326    1.9266   53.7082 H       1  ZINC000281092425    0.0800
     31 H31        -5.5304    2.8066   54.8263 H       1  ZINC000281092425    0.0500
     32 H32        -4.8279    2.4381   56.4197 H       1  ZINC000281092425    0.0500
     33 H33        -4.9579    4.7800   56.8773 H       1  ZINC000281092425    0.3800
     34 H34        -0.5699    2.6950   54.8613 H       1  ZINC000281092425    0.0800
     35 H35        -1.0427    4.3722   55.2996 H       1  ZINC000281092425    0.0800
     36 H36         0.0258    2.1487   57.1235 H       1  ZINC000281092425    0.0600
     37 H37         0.5452    3.8592   57.0398 H       1  ZINC000281092425    0.0900
     38 H38        -3.1695    4.2458   57.4663 H       1  ZINC000281092425    0.0800
     39 H39        -3.1229    2.5548   58.0347 H       1  ZINC000281092425    0.0700
     40 H40        -0.0102    3.3688   52.1822 H       1  ZINC000281092425    0.1500
     41 H41         1.0530    1.2422   51.4898 H       1  ZINC000281092425    0.1900
@<TRIPOS>BOND
     1     1     2    2
     2     2     3    2
     3     2     4    1
     4     4    21   ar
     5     4     5   ar
     6     5     6   ar
     7     5    26    1
     8     6     7   ar
     9     6    27    1
    10     7     8    1
    11     7    20   ar
    12     8     9    1
    13     8    28    1
    14     9    10    1
    15     9    29    1
    16     9    30    1
    17    10    11    1
    18    10    12    1
    19    10    14    1
    20    12    13    1
    21    12    31    1
    22    12    32    1
    23    13    33    1
    24    14    15    1
    25    14    19    1
    26    14    16    1
    27    16    17    1
    28    16    34    1
    29    16    35    1
    30    17    18    1
    31    17    36    1
    32    17    37    1
    33    18    19    1
    34    19    38    1
    35    19    39    1
    36    20    21   ar
    37    20    40    1
    38    21    22    1
    39    22    23    1
    40    23    24    1
    41    23    25    1
    42    23    41    1
@<TRIPOS>SUBSTRUCTURE
     1 ZINC000281092425        1 TEMP              0 ****  ****    0 ROOT


##########                                Name:    ZINC000342525234
##########                DOCK_Rotatable_Bonds:                   6
##########                         Heavy_Atoms:                  25
##########                    Molecular_Weight:             333.349
##########                DOCK_Rotatable_Bonds:                   6
##########                       Formal_Charge:           0.0500003
##########                     HBond_Acceptors:                   7
##########                        HBond_Donors:                   2
##########                         Heavy_Atoms:                  25
##########                          Grid_Score:          -27.862621
##########                     Grid_vdw_energy:          -25.348841
##########                      Grid_es_energy:           -2.513780
##########           Internal_energy_repulsive:            4.076347

@<TRIPOS>MOLECULE
ZINC000342525234
 40 43 1 0 0
SMALL
USER_CHARGES


@<TRIPOS>ATOM
      1 O1          0.0890    4.7497   50.0783 O.2     1  <0>        -0.5100
      2 C2         -0.5143    3.7912   49.6386 C.2     1  <0>         0.6000
      3 N3         -0.0133    3.1003   48.5954 N.am    1  <0>        -0.7100
      4 C4          1.2556    3.5089   47.9878 C.3     1  <0>         0.1200
      5 C5          1.8437    2.3375   47.1985 C.3     1  <0>        -0.0900
      6 C6          2.5138    1.3781   48.1480 C.ar    1  <0>        -0.0400
      7 C7          1.9521    0.1622   48.3625 C.ar    1  <0>        -0.1000
      8 C8          2.5707   -0.7447   49.2498 C.ar    1  <0>         0.1100
      9 N9          2.2965   -1.9665   49.6693 N.2     1  <0>        -0.3100
     10 N10         3.2893   -2.3721   50.5685 N.pl3   1  <0>        -0.4200
     11 C11         4.1971   -1.3979   50.7172 C.2     1  <0>         0.0900
     12 C12         3.8159   -0.3360   49.9183 C.ar    1  <0>        -0.2100
     13 C13         4.3434    0.9446   49.6475 C.ar    1  <0>        -0.0400
     14 C14         3.6990    1.7633   48.7787 C.ar    1  <0>        -0.1500
     15 C15        -1.7991    3.3774   50.2538 C.2     1  <0>        -0.0200
     16 N16        -2.6182    2.4526   49.8162 N.2     1  <0>        -0.3200
     17 O17        -3.5875    2.3386   50.5293 O.3     1  <0>         0.1400
     18 C18        -3.5465    3.1936   51.5664 C.2     1  <0>         0.0100
     19 C19        -4.5561    3.3366   52.6375 C.ar    1  <0>         0.0200
     20 C20        -5.7069    2.5400   52.6523 C.ar    1  <0>        -0.1400
     21 C21        -6.6224    2.7066   53.6708 C.ar    1  <0>         0.1100
     22 N22        -6.4246    3.6011   54.6202 N.ar    1  <0>        -0.4800
     23 C23        -5.3541    4.3719   54.6438 C.ar    1  <0>         0.1100
     24 C24        -4.3847    4.2683   53.6677 C.ar    1  <0>        -0.1500
     25 C25        -2.3836    3.8999   51.4375 C.2     1  <0>        -0.1500
     26 H26        -0.4930    2.3326   48.2469 H       1  <0>         0.4100
     27 H27         1.0826    4.3495   47.3158 H       1  <0>         0.0800
     28 H28         1.9537    3.8069   48.7700 H       1  <0>         0.0800
     29 H29         1.0456    1.8222   46.6643 H       1  <0>         0.0900
     30 H30         2.5763    2.7125   46.4837 H       1  <0>         0.0800
     31 H31         1.0370   -0.1102   47.8577 H       1  <0>         0.1300
     32 H32         3.3161   -3.2313   51.0178 H       1  <0>         0.4500
     33 H33         5.0717   -1.4355   51.3497 H       1  <0>         0.1900
     34 H34         5.2562    1.2690   50.1251 H       1  <0>         0.1300
     35 H35         4.1086    2.7418   48.5759 H       1  <0>         0.1200
     36 H36        -5.8756    1.8063   51.8780 H       1  <0>         0.1400
     37 H37        -7.5135    2.0967   53.6911 H       1  <0>         0.1700
     38 H38        -5.2332    5.0910   55.4405 H       1  <0>         0.1700
     39 H39        -3.5110    4.9026   53.6934 H       1  <0>         0.1500
     40 H40        -2.0017    4.6781   52.0816 H       1  <0>         0.1900
@<TRIPOS>BOND
     1     1     2    2
     2     2     3   am
     3     2    15    1
     4     3     4    1
     5     3    26    1
     6     4     5    1
     7     4    27    1
     8     4    28    1
     9     5     6    1
    10     5    29    1
    11     5    30    1
    12     6    14   ar
    13     6     7   ar
    14     7     8   ar
    15     7    31    1
    16     8    12   ar
    17     8     9    2
    18     9    10    1
    19    10    11    1
    20    10    32    1
    21    11    12    2
    22    11    33    1
    23    12    13   ar
    24    13    14   ar
    25    13    34    1
    26    14    35    1
    27    15    25    1
    28    15    16    2
    29    16    17    1
    30    17    18    1
    31    18    19    1
    32    18    25    2
    33    19    24   ar
    34    19    20   ar
    35    20    21   ar
    36    20    36    1
    37    21    22   ar
    38    21    37    1
    39    22    23   ar
    40    23    24   ar
    41    23    38    1
    42    24    39    1
    43    25    40    1
@<TRIPOS>SUBSTRUCTURE
     1 <0>         1 TEMP              0 ****  ****    0 ROOT


##########                                Name:    ZINC000573150059
##########                DOCK_Rotatable_Bonds:                   7
##########                         Heavy_Atoms:                  23
##########                    Molecular_Weight:             378.269
##########                DOCK_Rotatable_Bonds:                   7
##########                       Formal_Charge:        -2.98023e-07
##########                     HBond_Acceptors:                   5
##########                        HBond_Donors:                   2
##########                         Heavy_Atoms:                  23
##########                          Grid_Score:          -27.847141
##########                     Grid_vdw_energy:          -27.272888
##########                      Grid_es_energy:           -0.574254
##########           Internal_energy_repulsive:            8.907434

@<TRIPOS>MOLECULE
ZINC000573150059
 43 44 1 0 0
SMALL
USER_CHARGES


@<TRIPOS>ATOM
      1 C1         -8.3362   -0.1199   62.1900 C.3     1  ZINC000573150059    0.0300
      2 O2         -8.8940   -0.1629   60.8751 O.3     1  ZINC000573150059   -0.3600
      3 C3        -10.2534    0.2720   60.8059 C.3     1  ZINC000573150059    0.0700
      4 H4        -10.8499   -0.2837   61.5294 H       1  ZINC000573150059    0.0900
      5 C5        -10.3277    1.7666   61.1242 C.3     1  ZINC000573150059   -0.1700
      6 C6        -10.7893    0.0265   59.4189 C.2     1  ZINC000573150059    0.5100
      7 O7        -11.7660    0.6317   59.0303 O.2     1  ZINC000573150059   -0.4900
      8 N8        -10.1834   -0.8654   58.6104 N.am    1  ZINC000573150059   -0.6700
      9 C9        -10.6811   -1.0932   57.3227 C.ar    1  ZINC000573150059    0.1900
     10 C10       -11.5011   -2.1875   57.0777 C.ar    1  ZINC000573150059   -0.2000
     11 C11       -11.9931   -2.4134   55.8064 C.ar    1  ZINC000573150059   -0.0500
     12 C12       -11.6720   -1.5524   54.7752 C.ar    1  ZINC000573150059   -0.2200
     13 C13       -10.8524   -0.4555   55.0136 C.ar    1  ZINC000573150059    0.2400
     14 N14       -10.5283    0.4150   53.9705 N.pl3   1  ZINC000573150059   -0.7300
     15 C15       -10.1557   -0.1202   52.6587 C.3     1  ZINC000573150059    0.2000
     16 H16       -10.0014   -1.1964   52.7359 H       1  ZINC000573150059    0.1000
     17 C17       -11.2753    0.1639   51.6553 C.3     1  ZINC000573150059   -0.1700
     18 C18        -8.8831    0.5375   52.1908 C.ar    1  ZINC000573150059    0.1400
     19 C19        -8.8087    1.9162   52.1328 C.ar    1  ZINC000573150059   -0.1600
     20 C20        -7.6333    2.5120   51.7014 C.ar    1  ZINC000573150059   -0.0400
     21 C21        -6.5718    1.6942   51.3427 C.ar    1  ZINC000573150059   -0.1500
     22 Br22       -4.9422    2.4462   50.7470 Br      1  ZINC000573150059   -0.0300
     23 C23        -6.7206    0.3216   51.4269 C.ar    1  ZINC000573150059    0.1400
     24 N24        -7.8521   -0.2093   51.8466 N.ar    1  ZINC000573150059   -0.4700
     25 C25       -10.3606   -0.2233   56.2903 C.ar    1  ZINC000573150059   -0.1900
     26 H26        -8.3660    0.9035   62.5640 H       1  ZINC000573150059    0.0500
     27 H27        -8.9145   -0.7653   62.8512 H       1  ZINC000573150059    0.0400
     28 H28        -7.3028   -0.4650   62.1579 H       1  ZINC000573150059    0.0900
     29 H29        -9.7311    2.3222   60.4007 H       1  ZINC000573150059    0.0700
     30 H30       -11.3646    2.0983   61.0714 H       1  ZINC000573150059    0.0700
     31 H31        -9.9401    1.9441   62.1273 H       1  ZINC000573150059    0.0700
     32 H32        -9.4023   -1.3493   58.9212 H       1  ZINC000573150059    0.4100
     33 H33       -11.7541   -2.8626   57.8819 H       1  ZINC000573150059    0.1200
     34 H34       -12.6299   -3.2652   55.6186 H       1  ZINC000573150059    0.1300
     35 H35       -12.0578   -1.7318   53.7826 H       1  ZINC000573150059    0.1200
     36 H36       -10.5500    1.3741   54.1147 H       1  ZINC000573150059    0.4100
     37 H37       -11.4296    1.2401   51.5781 H       1  ZINC000573150059    0.0600
     38 H38       -10.9981   -0.2343   50.6793 H       1  ZINC000573150059    0.0700
     39 H39       -12.1958   -0.3118   51.9937 H       1  ZINC000573150059    0.0700
     40 H40        -9.6554    2.5220   52.4196 H       1  ZINC000573150059    0.1500
     41 H41        -7.5465    3.5871   51.6456 H       1  ZINC000573150059    0.1500
     42 H42        -5.8993   -0.3224   51.1493 H       1  ZINC000573150059    0.1700
     43 H43        -9.7239    0.6285   56.4783 H       1  ZINC000573150059    0.1400
@<TRIPOS>BOND
     1     1     2    1
     2     1    26    1
     3     1    27    1
     4     1    28    1
     5     2     3    1
     6     3     4    1
     7     3     5    1
     8     3     6    1
     9     5    29    1
    10     5    30    1
    11     5    31    1
    12     6     7    2
    13     6     8   am
    14     8     9    1
    15     8    32    1
    16     9    25   ar
    17     9    10   ar
    18    10    11   ar
    19    10    33    1
    20    11    12   ar
    21    11    34    1
    22    12    13   ar
    23    12    35    1
    24    13    14    1
    25    13    25   ar
    26    14    15    1
    27    14    36    1
    28    15    16    1
    29    15    17    1
    30    15    18    1
    31    17    37    1
    32    17    38    1
    33    17    39    1
    34    18    24   ar
    35    18    19   ar
    36    19    20   ar
    37    19    40    1
    38    20    21   ar
    39    20    41    1
    40    21    22    1
    41    21    23   ar
    42    23    24   ar
    43    23    42    1
    44    25    43    1
@<TRIPOS>SUBSTRUCTURE
     1 ZINC000573150059        1 TEMP              0 ****  ****    0 ROOT


##########                                Name:    ZINC001291841503
##########                DOCK_Rotatable_Bonds:                   7
##########                         Heavy_Atoms:                  28
##########                    Molecular_Weight:             397.544
##########                DOCK_Rotatable_Bonds:                   7
##########                       Formal_Charge:         -0.00999964
##########                     HBond_Acceptors:                   7
##########                        HBond_Donors:                   0
##########                         Heavy_Atoms:                  28
##########                          Grid_Score:          -27.837856
##########                     Grid_vdw_energy:          -28.126263
##########                      Grid_es_energy:            0.288406
##########           Internal_energy_repulsive:           20.146984

@<TRIPOS>MOLECULE
ZINC001291841503
 55 58 1 0 0
SMALL
USER_CHARGES


@<TRIPOS>ATOM
      1 C1         -8.5367    0.7966   63.7435 C.3     1  ZINC001291841503   -0.1500
      2 C2         -9.9378    0.9624   63.1513 C.3     1  ZINC001291841503   -0.1100
      3 C3        -10.0412    0.1594   61.8532 C.3     1  ZINC001291841503    0.0500
      4 H4         -9.4304   -0.7399   61.9326 H       1  ZINC001291841503    0.0900
      5 C5        -11.4779   -0.2286   61.6156 C.2     1  ZINC001291841503    0.2000
      6 N6        -12.5303    0.3910   62.0699 N.2     1  ZINC001291841503   -0.2700
      7 N7        -13.5978   -0.2077   61.6775 N.2     1  ZINC001291841503   -0.3100
      8 C8        -13.2811   -1.2498   60.9457 C.2     1  ZINC001291841503    0.3600
      9 N9        -14.1636   -2.1363   60.3490 N.3     1  ZINC001291841503   -0.4500
     10 C10       -14.8735   -2.9324   61.3590 C.3     1  ZINC001291841503    0.0200
     11 C11       -15.1096   -1.4295   59.4754 C.3     1  ZINC001291841503    0.0700
     12 H12       -15.6568   -0.6696   60.0333 H       1  ZINC001291841503    0.0800
     13 C13       -14.3756   -0.8010   58.2596 C.3     1  ZINC001291841503   -0.1400
     14 C14       -15.5103   -0.7898   57.2046 C.3     1  ZINC001291841503    0.0500
     15 O15       -16.2536   -1.9961   57.4402 O.3     1  ZINC001291841503   -0.3800
     16 C16       -16.0811   -2.4217   58.8007 C.3     1  ZINC001291841503    0.0600
     17 N17       -11.9189   -1.2924   60.8784 N.pl3   1  ZINC001291841503   -0.4700
     18 C18       -11.0987   -2.2790   60.1711 C.3     1  ZINC001291841503    0.1900
     19 C19       -11.0153   -1.9099   58.7124 C.2     1  ZINC001291841503   -0.2700
     20 C20       -10.8813   -2.7626   57.6921 C.2     1  ZINC001291841503    0.0800
     21 N21       -10.8318   -2.1915   56.5055 N.2     1  ZINC001291841503   -0.4800
     22 C22       -10.9165   -0.9046   56.4681 C.2     1  ZINC001291841503    0.0500
     23 C23       -10.8793   -0.0739   55.2113 C.3     1  ZINC001291841503   -0.0800
     24 S24       -11.0846   -0.2786   58.0502 S.3     1  ZINC001291841503    0.1800
     25 C25        -9.5508    0.9996   60.7023 C.ar    1  ZINC001291841503   -0.0900
     26 C26       -10.2228    2.1568   60.3558 C.ar    1  ZINC001291841503   -0.0900
     27 C27        -9.7730    2.9276   59.3001 C.ar    1  ZINC001291841503   -0.1200
     28 C28        -8.6509    2.5414   58.5913 C.ar    1  ZINC001291841503   -0.1200
     29 C29        -7.9783    1.3846   58.9383 C.ar    1  ZINC001291841503   -0.1200
     30 C30        -8.4257    0.6161   59.9968 C.ar    1  ZINC001291841503   -0.1100
     31 H31        -8.3531   -0.2573   63.9525 H       1  ZINC001291841503    0.0500
     32 H32        -7.7960    1.1601   63.0313 H       1  ZINC001291841503    0.0500
     33 H33        -8.4630    1.3687   64.6683 H       1  ZINC001291841503    0.0600
     34 H34       -10.6785    0.5988   63.8634 H       1  ZINC001291841503    0.0800
     35 H35       -10.1214    2.0163   62.9423 H       1  ZINC001291841503    0.0800
     36 H36       -15.5087   -2.2783   61.9566 H       1  ZINC001291841503    0.0500
     37 H37       -15.4893   -3.6827   60.8632 H       1  ZINC001291841503    0.0900
     38 H38       -14.1496   -3.4267   62.0068 H       1  ZINC001291841503    0.0700
     39 H39       -14.0381    0.2108   58.4844 H       1  ZINC001291841503    0.0900
     40 H40       -13.5444   -1.4274   57.9358 H       1  ZINC001291841503    0.0800
     41 H41       -16.1493    0.0820   57.3456 H       1  ZINC001291841503    0.0700
     42 H42       -15.0914   -0.7939   56.1983 H       1  ZINC001291841503    0.0900
     43 H43       -15.6554   -3.4249   58.8232 H       1  ZINC001291841503    0.0800
     44 H44       -17.0421   -2.4149   59.3151 H       1  ZINC001291841503    0.0700
     45 H45       -10.0968   -2.2932   60.6002 H       1  ZINC001291841503    0.1100
     46 H46       -11.5507   -3.2658   60.2709 H       1  ZINC001291841503    0.1100
     47 H47       -10.8189   -3.8321   57.8288 H       1  ZINC001291841503    0.1700
     48 H48       -11.8929    0.0565   54.8318 H       1  ZINC001291841503    0.0900
     49 H49       -10.4461    0.9014   55.4329 H       1  ZINC001291841503    0.0800
     50 H50       -10.2723   -0.5788   54.4597 H       1  ZINC001291841503    0.0900
     51 H51       -11.0995    2.4586   60.9097 H       1  ZINC001291841503    0.1300
     52 H52       -10.2985    3.8314   59.0290 H       1  ZINC001291841503    0.1200
     53 H53        -8.2998    3.1431   57.7660 H       1  ZINC001291841503    0.1200
     54 H54        -7.1018    1.0828   58.3843 H       1  ZINC001291841503    0.1200
     55 H55        -7.9002   -0.2876   60.2680 H       1  ZINC001291841503    0.1200
@<TRIPOS>BOND
     1     1     2    1
     2     1    31    1
     3     1    32    1
     4     1    33    1
     5     2     3    1
     6     2    34    1
     7     2    35    1
     8     3     4    1
     9     3     5    1
    10     3    25    1
    11     5    17    1
    12     5     6    2
    13     6     7    1
    14     7     8    2
    15     8     9    1
    16     8    17    1
    17     9    10    1
    18     9    11    1
    19    10    36    1
    20    10    37    1
    21    10    38    1
    22    11    12    1
    23    11    16    1
    24    11    13    1
    25    13    14    1
    26    13    39    1
    27    13    40    1
    28    14    15    1
    29    14    41    1
    30    14    42    1
    31    15    16    1
    32    16    43    1
    33    16    44    1
    34    17    18    1
    35    18    19    1
    36    18    45    1
    37    18    46    1
    38    19    24    1
    39    19    20    2
    40    20    21    1
    41    20    47    1
    42    21    22    2
    43    22    23    1
    44    22    24    1
    45    23    48    1
    46    23    49    1
    47    23    50    1
    48    25    30   ar
    49    25    26   ar
    50    26    27   ar
    51    26    51    1
    52    27    28   ar
    53    27    52    1
    54    28    29   ar
    55    28    53    1
    56    29    30   ar
    57    29    54    1
    58    30    55    1
@<TRIPOS>SUBSTRUCTURE
     1 ZINC001291841503        1 TEMP              0 ****  ****    0 ROOT


##########                                Name:    ZINC000028372981
##########                DOCK_Rotatable_Bonds:                   7
##########                         Heavy_Atoms:                  28
##########                    Molecular_Weight:             380.443
##########                DOCK_Rotatable_Bonds:                   7
##########                       Formal_Charge:         1.78814e-07
##########                     HBond_Acceptors:                   6
##########                        HBond_Donors:                   1
##########                         Heavy_Atoms:                  28
##########                          Grid_Score:          -27.830366
##########                     Grid_vdw_energy:          -26.777941
##########                      Grid_es_energy:           -1.052425
##########           Internal_energy_repulsive:          168.746063

@<TRIPOS>MOLECULE
ZINC000028372981
 52 54 1 0 0
SMALL
USER_CHARGES


@<TRIPOS>ATOM
      1 C1         -3.9980    3.3993   55.6881 C.3     1  ZINC000028372981   -0.1800
      2 C2         -3.1161    3.2977   54.4704 C.2     1  ZINC000028372981    0.5200
      3 O3         -1.9114    3.3756   54.5860 O.2     1  ZINC000028372981   -0.5100
      4 N4         -3.6662    3.1205   53.2529 N.am    1  ZINC000028372981   -0.5500
      5 C5         -5.1033    3.0109   52.9899 C.3     1  ZINC000028372981    0.1000
      6 C6         -5.2221    2.8198   51.4691 C.3     1  ZINC000028372981   -0.0900
      7 C7         -3.7936    2.8368   50.9724 C.ar    1  ZINC000028372981   -0.1500
      8 C8         -3.2806    2.7151   49.7005 C.ar    1  ZINC000028372981    0.0000
      9 C9         -1.8984    2.7593   49.4965 C.ar    1  ZINC000028372981   -0.1600
     10 C10        -1.3434    2.6243   48.1371 C.2     1  ZINC000028372981    0.5200
     11 O11        -1.9108    1.9322   47.3152 O.2     1  ZINC000028372981   -0.5000
     12 O12        -0.2071    3.2684   47.8061 O.3     1  ZINC000028372981   -0.3200
     13 C13         0.5611    2.7244   46.7007 C.3     1  ZINC000028372981    0.0700
     14 H14        -0.1178    2.3930   45.9148 H       1  ZINC000028372981    0.1200
     15 C15         1.3910    1.5366   47.1919 C.3     1  ZINC000028372981   -0.1700
     16 C16         1.4795    3.7878   46.1557 C.2     1  ZINC000028372981    0.5200
     17 O17         1.8425    4.6991   46.8688 O.2     1  ZINC000028372981   -0.4900
     18 N18         1.8974    3.7259   44.8758 N.am    1  ZINC000028372981   -0.6600
     19 C19         2.7501    4.7132   44.3698 C.ar    1  ZINC000028372981    0.1500
     20 C20         3.1657    5.7580   45.1847 C.ar    1  ZINC000028372981   -0.1300
     21 C21         4.0079    6.7308   44.6823 C.ar    1  ZINC000028372981   -0.1000
     22 C22         4.4374    6.6647   43.3697 C.ar    1  ZINC000028372981   -0.1300
     23 C23         4.0256    5.6253   42.5556 C.ar    1  ZINC000028372981   -0.0700
     24 C24         4.4966    5.5570   41.1259 C.3     1  ZINC000028372981   -0.1200
     25 C25         3.1830    4.6501   43.0515 C.ar    1  ZINC000028372981   -0.1200
     26 C26         2.7340    3.5183   42.1636 C.3     1  ZINC000028372981   -0.1200
     27 C27        -1.0464    2.9381   50.5903 C.ar    1  ZINC000028372981   -0.0200
     28 C28        -1.5673    3.0640   51.8554 C.ar    1  ZINC000028372981   -0.1800
     29 C29        -2.9502    3.0147   52.0619 C.ar    1  ZINC000028372981    0.1900
     30 H30        -4.5798    2.4836   55.7929 H       1  ZINC000028372981    0.1000
     31 H31        -3.3791    3.5400   56.5743 H       1  ZINC000028372981    0.1000
     32 H32        -4.6731    4.2480   55.5780 H       1  ZINC000028372981    0.1000
     33 H33        -5.5186    2.1493   53.5127 H       1  ZINC000028372981    0.0900
     34 H34        -5.6145    3.9231   53.2974 H       1  ZINC000028372981    0.0900
     35 H35        -5.6927    1.8633   51.2414 H       1  ZINC000028372981    0.1000
     36 H36        -5.7905    3.6376   51.0262 H       1  ZINC000028372981    0.1000
     37 H37        -3.9461    2.5814   48.8605 H       1  ZINC000028372981    0.1400
     38 H38         2.0699    1.8679   47.9778 H       1  ZINC000028372981    0.0800
     39 H39         0.7268    0.7675   47.5861 H       1  ZINC000028372981    0.0800
     40 H40         1.9677    1.1282   46.3620 H       1  ZINC000028372981    0.0800
     41 H41         1.6070    2.9970   44.3055 H       1  ZINC000028372981    0.4100
     42 H42         2.8343    5.8074   46.2114 H       1  ZINC000028372981    0.1400
     43 H43         4.3314    7.5435   45.3155 H       1  ZINC000028372981    0.1300
     44 H44         5.0961    7.4265   42.9794 H       1  ZINC000028372981    0.1200
     45 H45         5.4246    4.9872   41.0757 H       1  ZINC000028372981    0.0700
     46 H46         3.7368    5.0683   40.5160 H       1  ZINC000028372981    0.0700
     47 H47         4.6693    6.5661   40.7515 H       1  ZINC000028372981    0.0700
     48 H48         3.4399    2.6916   42.2438 H       1  ZINC000028372981    0.0700
     49 H49         1.7447    3.1828   42.4748 H       1  ZINC000028372981    0.0600
     50 H50         2.6927    3.8618   41.1301 H       1  ZINC000028372981    0.0800
     51 H51         0.0224    2.9777   50.4406 H       1  ZINC000028372981    0.1500
     52 H52        -0.9043    3.2016   52.6968 H       1  ZINC000028372981    0.1500
@<TRIPOS>BOND
     1     1     2    1
     2     1    30    1
     3     1    31    1
     4     1    32    1
     5     2     3    2
     6     2     4   am
     7     4    29    1
     8     4     5    1
     9     5     6    1
    10     5    33    1
    11     5    34    1
    12     6     7    1
    13     6    35    1
    14     6    36    1
    15     7    29   ar
    16     7     8   ar
    17     8     9   ar
    18     8    37    1
    19     9    10    1
    20     9    27   ar
    21    10    11    2
    22    10    12    1
    23    12    13    1
    24    13    14    1
    25    13    15    1
    26    13    16    1
    27    15    38    1
    28    15    39    1
    29    15    40    1
    30    16    17    2
    31    16    18   am
    32    18    19    1
    33    18    41    1
    34    19    25   ar
    35    19    20   ar
    36    20    21   ar
    37    20    42    1
    38    21    22   ar
    39    21    43    1
    40    22    23   ar
    41    22    44    1
    42    23    24    1
    43    23    25   ar
    44    24    45    1
    45    24    46    1
    46    24    47    1
    47    25    26    1
    48    26    48    1
    49    26    49    1
    50    26    50    1
    51    27    28   ar
    52    27    51    1
    53    28    29   ar
    54    28    52    1
@<TRIPOS>SUBSTRUCTURE
     1 ZINC000028372981        1 TEMP              0 ****  ****    0 ROOT


##########                                Name:    ZINC001065334255
##########                DOCK_Rotatable_Bonds:                   7
##########                         Heavy_Atoms:                  23
##########                    Molecular_Weight:             346.448
##########                DOCK_Rotatable_Bonds:                   7
##########                       Formal_Charge:        -5.81145e-07
##########                     HBond_Acceptors:                   8
##########                        HBond_Donors:                   1
##########                         Heavy_Atoms:                  23
##########                          Grid_Score:          -27.809019
##########                     Grid_vdw_energy:          -26.390375
##########                      Grid_es_energy:           -1.418644
##########           Internal_energy_repulsive:           17.850973

@<TRIPOS>MOLECULE
ZINC001065334255
 49 50 1 0 0
SMALL
USER_CHARGES


@<TRIPOS>ATOM
      1 C1         -8.8304    2.7156   52.9862 C.3     1  ZINC001065334255   -0.1500
      2 C2         -7.6575    1.7370   52.8994 C.3     1  ZINC001065334255   -0.0800
      3 C3         -8.1879    0.3285   52.6241 C.3     1  ZINC001065334255   -0.1500
      4 C4         -6.7226    2.1606   51.7647 C.3     1  ZINC001065334255   -0.1400
      5 C5         -5.6427    3.0579   52.3121 C.2     1  ZINC001065334255    0.5100
      6 O6         -5.8245    3.6641   53.3468 O.2     1  ZINC001065334255   -0.5300
      7 N7         -4.4747    3.1868   51.6520 N.am    1  ZINC001065334255   -0.7300
      8 C8         -3.4242    4.0577   52.1851 C.3     1  ZINC001065334255    0.1300
      9 C9         -2.0531    3.4789   51.8300 C.3     1  ZINC001065334255    0.0700
     10 H10        -1.9609    2.4773   52.2500 H       1  ZINC001065334255    0.0700
     11 C11        -1.9054    3.4106   50.3058 C.3     1  ZINC001065334255    0.0800
     12 N12        -0.5192    3.0306   49.9904 N.am    1  ZINC001065334255   -0.6100
     13 C13        -0.2534    2.0192   49.1402 C.2     1  ZINC001065334255    0.5400
     14 O14        -1.1635    1.4069   48.6228 O.2     1  ZINC001065334255   -0.5200
     15 C15         1.1746    1.6490   48.8325 C.3     1  ZINC001065334255   -0.1100
     16 H16         1.7773    2.5501   48.7185 H       1  ZINC001065334255    0.1200
     17 C17         1.2354    0.8081   47.5453 C.3     1  ZINC001065334255   -0.1000
     18 C18         2.6323    0.1642   47.4409 C.3     1  ZINC001065334255   -0.5900
     19 S19         3.2049   -0.0138   49.1690 S.o2    1  ZINC001065334255    2.3900
     20 O20         3.2487   -1.3924   49.5109 O.2     1  ZINC001065334255   -0.9300
     21 O21         4.3500    0.8025   49.3722 O.2     1  ZINC001065334255   -0.9300
     22 C22         1.7507    0.7651   49.9687 C.3     1  ZINC001065334255   -0.5900
     23 C23         0.5682    3.7878   50.6304 C.3     1  ZINC001065334255    0.0600
     24 C24         0.3000    3.8378   52.1388 C.3     1  ZINC001065334255    0.0500
     25 O25        -1.0273    4.3179   52.3662 O.3     1  ZINC001065334255   -0.3700
     26 H26        -9.4964    2.4138   53.7945 H       1  ZINC001065334255    0.0600
     27 H27        -8.4525    3.7191   53.1823 H       1  ZINC001065334255    0.0500
     28 H28        -9.3778    2.7112   52.0436 H       1  ZINC001065334255    0.0600
     29 H29        -7.1102    1.7413   53.8420 H       1  ZINC001065334255    0.0800
     30 H30        -8.7353    0.3241   51.6816 H       1  ZINC001065334255    0.0500
     31 H31        -7.3523   -0.3687   52.5623 H       1  ZINC001065334255    0.0700
     32 H32        -8.8539    0.0267   53.4325 H       1  ZINC001065334255    0.0500
     33 H33        -6.2685    1.2759   51.3186 H       1  ZINC001065334255    0.0900
     34 H34        -7.2920    2.6982   51.0065 H       1  ZINC001065334255    0.0900
     35 H35        -4.3298    2.7029   50.8238 H       1  ZINC001065334255    0.4000
     36 H36        -3.5221    5.0526   51.7510 H       1  ZINC001065334255    0.0900
     37 H37        -3.5216    4.1228   53.2688 H       1  ZINC001065334255    0.0800
     38 H38        -2.5911    2.6648   49.9035 H       1  ZINC001065334255    0.1100
     39 H39        -2.1266    4.3855   49.8715 H       1  ZINC001065334255    0.0900
     40 H40         0.4744    0.0285   47.5806 H       1  ZINC001065334255    0.1000
     41 H41         1.0614    1.4484   46.6806 H       1  ZINC001065334255    0.1000
     42 H42         2.5640   -0.8127   46.9622 H       1  ZINC001065334255    0.1500
     43 H43         3.3076    0.8134   46.8834 H       1  ZINC001065334255    0.1400
     44 H44         2.0572    1.3761   50.8179 H       1  ZINC001065334255    0.1400
     45 H45         1.0269    0.0100   50.2752 H       1  ZINC001065334255    0.1500
     46 H46         1.5206    3.2918   50.4431 H       1  ZINC001065334255    0.1000
     47 H47         0.5960    4.8008   50.2286 H       1  ZINC001065334255    0.0900
     48 H48         0.4016    2.8376   52.5600 H       1  ZINC001065334255    0.0600
     49 H49         1.0160    4.5083   52.6139 H       1  ZINC001065334255    0.1100
@<TRIPOS>BOND
     1     1     2    1
     2     1    26    1
     3     1    27    1
     4     1    28    1
     5     2     3    1
     6     2     4    1
     7     2    29    1
     8     3    30    1
     9     3    31    1
    10     3    32    1
    11     4     5    1
    12     4    33    1
    13     4    34    1
    14     5     6    2
    15     5     7   am
    16     7     8    1
    17     7    35    1
    18     8     9    1
    19     8    36    1
    20     8    37    1
    21     9    10    1
    22     9    25    1
    23     9    11    1
    24    11    12    1
    25    11    38    1
    26    11    39    1
    27    12    13   am
    28    12    23    1
    29    13    14    2
    30    13    15    1
    31    15    16    1
    32    15    22    1
    33    15    17    1
    34    17    18    1
    35    17    40    1
    36    17    41    1
    37    18    19    1
    38    18    42    1
    39    18    43    1
    40    19    20    2
    41    19    21    2
    42    19    22    1
    43    22    44    1
    44    22    45    1
    45    23    24    1
    46    23    46    1
    47    23    47    1
    48    24    25    1
    49    24    48    1
    50    24    49    1
@<TRIPOS>SUBSTRUCTURE
     1 ZINC001065334255        1 TEMP              0 ****  ****    0 ROOT


##########                                Name:    ZINC000416583757
##########                DOCK_Rotatable_Bonds:                   7
##########                         Heavy_Atoms:                  20
##########                    Molecular_Weight:             380.693
##########                DOCK_Rotatable_Bonds:                   7
##########                       Formal_Charge:         1.04308e-07
##########                     HBond_Acceptors:                   7
##########                        HBond_Donors:                   1
##########                         Heavy_Atoms:                  20
##########                          Grid_Score:          -27.805620
##########                     Grid_vdw_energy:          -26.861897
##########                      Grid_es_energy:           -0.943723
##########           Internal_energy_repulsive:            9.001945

@<TRIPOS>MOLECULE
ZINC000416583757
 35 35 1 0 0
SMALL
USER_CHARGES


@<TRIPOS>ATOM
      1 C1         -8.0950    1.6863   54.5494 C.3     1  ZINC000416583757   -0.1500
      2 C2         -8.3367    0.9149   53.2504 C.3     1  ZINC000416583757   -0.0200
      3 H3         -7.6994    0.0309   53.2288 H       1  ZINC000416583757    0.1200
      4 C4         -9.7484    0.5038   53.1793 C.1     1  ZINC000416583757    0.2100
      5 N5        -10.8378    0.1867   53.1244 N.1     1  ZINC000416583757   -0.4200
      6 C6         -8.0058    1.8115   52.0556 C.3     1  ZINC000416583757    0.1300
      7 N7         -6.5829    1.6861   51.7305 N.am    1  ZINC000416583757   -1.0100
      8 C8         -6.0571    0.4176   51.2201 C.3     1  ZINC000416583757    0.0800
      9 S9         -5.5686    2.9783   51.9402 S.o2    1  ZINC000416583757    2.7800
     10 O10        -5.9753    3.9641   51.0009 O.2     1  ZINC000416583757   -0.9700
     11 O11        -5.5067    3.2169   53.3396 O.2     1  ZINC000416583757   -0.9700
     12 N12        -4.0536    2.4919   51.4812 N.am    1  ZINC000416583757   -1.1300
     13 C13        -2.9298    3.4287   51.5554 C.3     1  ZINC000416583757    0.1600
     14 C14        -1.8167    2.9499   50.6594 C.ar    1  ZINC000416583757   -0.0800
     15 C15        -2.0930    2.5610   49.3623 C.ar    1  ZINC000416583757   -0.0800
     16 C16        -1.0712    2.1218   48.5390 C.ar    1  ZINC000416583757   -0.0300
     17 Cl17       -1.4181    1.6338   46.9095 Cl      1  ZINC000416583757   -0.0500
     18 C18         0.2267    2.0721   49.0145 C.ar    1  ZINC000416583757   -0.0700
     19 C19         0.5025    2.4615   50.3128 C.ar    1  ZINC000416583757   -0.0800
     20 Br20        2.2766    2.3938   50.9638 Br      1  ZINC000416583757   -0.0300
     21 C21        -0.5188    2.9053   51.1332 C.ar    1  ZINC000416583757   -0.0700
     22 H22        -8.4446    1.0934   55.3945 H       1  ZINC000416583757    0.0700
     23 H23        -7.0291    1.8849   54.6610 H       1  ZINC000416583757    0.0800
     24 H24        -8.6391    2.6303   54.5180 H       1  ZINC000416583757    0.0700
     25 H25        -8.6031    1.5068   51.1962 H       1  ZINC000416583757    0.0900
     26 H26        -8.2314    2.8481   52.3058 H       1  ZINC000416583757    0.1000
     27 H27        -6.1193    0.4100   50.1319 H       1  ZINC000416583757    0.0700
     28 H28        -5.0167    0.3063   51.5253 H       1  ZINC000416583757    0.0800
     29 H29        -6.6442   -0.4076   51.6233 H       1  ZINC000416583757    0.0800
     30 H30        -3.9104    1.5868   51.1634 H       1  ZINC000416583757    0.4200
     31 H31        -3.2579    4.4163   51.2311 H       1  ZINC000416583757    0.0800
     32 H32        -2.5705    3.4847   52.5830 H       1  ZINC000416583757    0.1000
     33 H33        -3.1065    2.5996   48.9913 H       1  ZINC000416583757    0.1500
     34 H34         1.0245    1.7290   48.3725 H       1  ZINC000416583757    0.1500
     35 H35        -0.3035    3.2094   52.1470 H       1  ZINC000416583757    0.1400
@<TRIPOS>BOND
     1     1     2    1
     2     1    22    1
     3     1    23    1
     4     1    24    1
     5     2     3    1
     6     2     4    1
     7     2     6    1
     8     4     5    3
     9     6     7    1
    10     6    25    1
    11     6    26    1
    12     7     8    1
    13     7     9   am
    14     8    27    1
    15     8    28    1
    16     8    29    1
    17     9    10    2
    18     9    11    2
    19     9    12   am
    20    12    13    1
    21    12    30    1
    22    13    14    1
    23    13    31    1
    24    13    32    1
    25    14    21   ar
    26    14    15   ar
    27    15    16   ar
    28    15    33    1
    29    16    17    1
    30    16    18   ar
    31    18    19   ar
    32    18    34    1
    33    19    20    1
    34    19    21   ar
    35    21    35    1
@<TRIPOS>SUBSTRUCTURE
     1 ZINC000416583757        1 TEMP              0 ****  ****    0 ROOT


##########                                Name:    ZINC001018437438
##########                DOCK_Rotatable_Bonds:                   8
##########                         Heavy_Atoms:                  24
##########                    Molecular_Weight:              333.39
##########                DOCK_Rotatable_Bonds:                   8
##########                       Formal_Charge:        -4.17233e-07
##########                     HBond_Acceptors:                   8
##########                        HBond_Donors:                   4
##########                         Heavy_Atoms:                  24
##########                          Grid_Score:          -27.801363
##########                     Grid_vdw_energy:          -27.212912
##########                      Grid_es_energy:           -0.588451
##########           Internal_energy_repulsive:           87.362587

@<TRIPOS>MOLECULE
ZINC001018437438
 47 49 1 0 0
SMALL
USER_CHARGES


@<TRIPOS>ATOM
      1 C1         -5.6079    3.3516   55.7768 C.3     1  ZINC001018437438   -0.1400
      2 C2         -4.6551    3.9102   54.7181 C.3     1  ZINC001018437438    0.1400
      3 H3         -4.7215    4.9981   54.7043 H       1  ZINC001018437438    0.0700
      4 C4         -3.2194    3.4875   55.0450 C.3     1  ZINC001018437438   -0.1300
      5 C5         -2.2910    3.9296   53.9115 C.3     1  ZINC001018437438   -0.1300
      6 C6         -2.7115    3.2448   52.6090 C.3     1  ZINC001018437438    0.1300
      7 H7         -2.6713    2.1632   52.7373 H       1  ZINC001018437438    0.1000
      8 N8         -1.8027    3.6437   51.5314 N.am    1  ZINC001018437438   -0.7200
      9 C9         -1.6475    2.8507   50.4528 C.2     1  ZINC001018437438    0.6000
     10 O10        -2.2630    1.8047   50.3733 O.2     1  ZINC001018437438   -0.5100
     11 C11        -0.7332    3.2505   49.3711 C.2     1  ZINC001018437438   -0.0400
     12 C12        -0.3482    2.4856   48.2837 C.2     1  ZINC001018437438   -0.1400
     13 C13         0.5198    3.2971   47.5494 C.2     1  ZINC001018437438    0.0600
     14 C14         1.2141    2.9203   46.2661 C.3     1  ZINC001018437438   -0.0800
     15 C15         1.3470    4.0010   45.1912 C.3     1  ZINC001018437438   -0.1700
     16 C16         2.5766    3.5579   45.9865 C.3     1  ZINC001018437438   -0.1600
     17 N17         0.6224    4.4428   48.1733 N.2     1  ZINC001018437438   -0.2600
     18 N18        -0.0992    4.4528   49.2360 N.pl3   1  ZINC001018437438   -0.3800
     19 C19        -4.1414    3.6648   52.2545 C.3     1  ZINC001018437438    0.1000
     20 N20        -5.0189    3.3778   53.3980 N.am    1  ZINC001018437438   -0.6100
     21 C21        -6.1331    2.6362   53.2394 C.2     1  ZINC001018437438    0.5200
     22 O22        -6.8465    2.4023   54.1919 O.2     1  ZINC001018437438   -0.4800
     23 C23        -6.4922    2.0974   51.8786 C.3     1  ZINC001018437438   -0.1700
     24 C24        -7.7570    1.2840   51.9782 C.2     1  ZINC001018437438    0.5200
     25 N25        -7.6883   -0.0565   52.0994 N.am    1  ZINC001018437438   -0.8600
     26 O26        -8.8366    1.8358   51.9493 O.2     1  ZINC001018437438   -0.5000
     27 H27        -5.6152    2.2631   55.7211 H       1  ZINC001018437438    0.0700
     28 H28        -5.2737    3.6625   56.7666 H       1  ZINC001018437438    0.0500
     29 H29        -6.6137    3.7314   55.5972 H       1  ZINC001018437438    0.0800
     30 H30        -2.9051    3.9574   55.9769 H       1  ZINC001018437438    0.0900
     31 H31        -3.1744    2.4036   55.1503 H       1  ZINC001018437438    0.0700
     32 H32        -2.3553    5.0110   53.7904 H       1  ZINC001018437438    0.0700
     33 H33        -1.2651    3.6519   54.1530 H       1  ZINC001018437438    0.0800
     34 H34        -1.3127    4.4784   51.5942 H       1  ZINC001018437438    0.4000
     35 H35        -0.6537    1.4760   48.0522 H       1  ZINC001018437438    0.1700
     36 H36         1.0607    1.8941   45.9323 H       1  ZINC001018437438    0.1200
     37 H37         1.2808    3.6858   44.1498 H       1  ZINC001018437438    0.1000
     38 H38         0.9321    4.9844   45.4122 H       1  ZINC001018437438    0.1000
     39 H39         2.9707    4.2498   46.7308 H       1  ZINC001018437438    0.1000
     40 H40         3.3193    2.9512   45.4685 H       1  ZINC001018437438    0.1000
     41 H41        -0.1766    5.1980   49.8521 H       1  ZINC001018437438    0.4400
     42 H42        -4.1654    4.7327   52.0373 H       1  ZINC001018437438    0.0700
     43 H43        -4.4814    3.1049   51.3833 H       1  ZINC001018437438    0.0900
     44 H44        -6.6471    2.9269   51.1887 H       1  ZINC001018437438    0.1200
     45 H45        -5.6824    1.4665   51.5122 H       1  ZINC001018437438    0.1200
     46 H46        -8.5022   -0.5803   52.1623 H       1  ZINC001018437438    0.4000
     47 H47        -6.8247   -0.4976   52.1237 H       1  ZINC001018437438    0.4000
@<TRIPOS>BOND
     1     1     2    1
     2     1    27    1
     3     1    28    1
     4     1    29    1
     5     2     3    1
     6     2    20    1
     7     2     4    1
     8     4     5    1
     9     4    30    1
    10     4    31    1
    11     5     6    1
    12     5    32    1
    13     5    33    1
    14     6     7    1
    15     6     8    1
    16     6    19    1
    17     8     9   am
    18     8    34    1
    19     9    10    2
    20     9    11    1
    21    11    18    1
    22    11    12    2
    23    12    13    1
    24    12    35    1
    25    13    14    1
    26    13    17    2
    27    14    16    1
    28    14    15    1
    29    14    36    1
    30    15    16    1
    31    15    37    1
    32    15    38    1
    33    16    39    1
    34    16    40    1
    35    17    18    1
    36    18    41    1
    37    19    20    1
    38    19    42    1
    39    19    43    1
    40    20    21   am
    41    21    22    2
    42    21    23    1
    43    23    24    1
    44    23    44    1
    45    23    45    1
    46    24    25   am
    47    24    26    2
    48    25    46    1
    49    25    47    1
@<TRIPOS>SUBSTRUCTURE
     1 ZINC001018437438        1 TEMP              0 ****  ****    0 ROOT


##########                                Name:    ZINC001082278299
##########                DOCK_Rotatable_Bonds:                   9
##########                         Heavy_Atoms:                  25
##########                    Molecular_Weight:              346.47
##########                DOCK_Rotatable_Bonds:                   9
##########                       Formal_Charge:           0.0200001
##########                     HBond_Acceptors:                   5
##########                        HBond_Donors:                   1
##########                         Heavy_Atoms:                  25
##########                          Grid_Score:          -27.774443
##########                     Grid_vdw_energy:          -26.391134
##########                      Grid_es_energy:           -1.383308
##########           Internal_energy_repulsive:           84.435242

@<TRIPOS>MOLECULE
ZINC001082278299
 55 57 1 0 0
SMALL
USER_CHARGES


@<TRIPOS>ATOM
      1 C1         -9.2731    1.8478   61.4793 C.3     1  ZINC001082278299   -0.1300
      2 C2         -8.5996    0.5473   61.8344 C.2     1  ZINC001082278299    0.0000
      3 C3         -8.2956   -0.3266   60.8792 C.2     1  ZINC001082278299   -0.2300
      4 C4         -8.6167   -0.0240   59.4759 C.2     1  ZINC001082278299    0.5400
      5 O5         -7.7403    0.3439   58.7173 O.2     1  ZINC001082278299   -0.5300
      6 N6         -9.8822   -0.1544   59.0309 N.am    1  ZINC001082278299   -0.7400
      7 C7        -10.2022    0.1487   57.6338 C.3     1  ZINC001082278299    0.1300
      8 C8        -11.5743   -0.4328   57.2872 C.3     1  ZINC001082278299    0.1400
      9 H9        -12.3483    0.1067   57.8330 H       1  ZINC001082278299    0.0800
     10 C10       -11.6150   -1.9157   57.6696 C.3     1  ZINC001082278299   -0.1300
     11 C11       -12.9363   -2.5247   57.1948 C.3     1  ZINC001082278299   -0.1200
     12 C12       -13.0317   -2.4160   55.6713 C.3     1  ZINC001082278299   -0.1400
     13 C13       -13.0071   -0.9389   55.2662 C.3     1  ZINC001082278299    0.1100
     14 N14       -11.8118   -0.3074   55.8427 N.am    1  ZINC001082278299   -0.6100
     15 C15       -10.9477    0.3693   55.0605 C.2     1  ZINC001082278299    0.5100
     16 O16        -9.9650    0.8861   55.5483 O.2     1  ZINC001082278299   -0.5100
     17 C17       -11.2027    0.4839   53.5796 C.3     1  ZINC001082278299   -0.1100
     18 C18       -10.0984    1.2856   52.9403 C.2     1  ZINC001082278299   -0.0900
     19 C19        -8.9425    0.7206   52.7551 C.2     1  ZINC001082278299   -0.1800
     20 C20        -7.7756    1.4355   52.1351 C.3     1  ZINC001082278299    0.0900
     21 O21        -8.2194    2.6254   51.4800 O.3     1  ZINC001082278299   -0.3800
     22 C22        -9.0529    3.4443   52.3096 C.3     1  ZINC001082278299    0.0600
     23 C23       -10.3776    2.7067   52.5353 C.3     1  ZINC001082278299   -0.1100
     24 C24        -8.2706    0.2371   63.2719 C.3     1  ZINC001082278299   -0.1200
     25 C25        -7.6927    1.3686   64.1244 C.3     1  ZINC001082278299   -0.1900
     26 C26        -9.1304    0.8972   64.3518 C.3     1  ZINC001082278299   -0.1500
     27 H27       -10.3548    1.7165   61.5081 H       1  ZINC001082278299    0.0800
     28 H28        -8.9812    2.6157   62.1957 H       1  ZINC001082278299    0.0800
     29 H29        -8.9706    2.1519   60.4772 H       1  ZINC001082278299    0.0700
     30 H30        -7.8129   -1.2586   61.1338 H       1  ZINC001082278299    0.1300
     31 H31       -10.5810   -0.4489   59.6357 H       1  ZINC001082278299    0.3900
     32 H32       -10.2190    1.2292   57.4911 H       1  ZINC001082278299    0.0900
     33 H33        -9.4461   -0.2919   56.9840 H       1  ZINC001082278299    0.0800
     34 H34       -10.7832   -2.4366   57.1956 H       1  ZINC001082278299    0.0700
     35 H35       -11.5372   -2.0145   58.7524 H       1  ZINC001082278299    0.0800
     36 H36       -12.9784   -3.5739   57.4874 H       1  ZINC001082278299    0.0700
     37 H37       -13.7682   -1.9873   57.6500 H       1  ZINC001082278299    0.0700
     38 H38       -12.1865   -2.9324   55.2161 H       1  ZINC001082278299    0.0700
     39 H39       -13.9622   -2.8710   55.3317 H       1  ZINC001082278299    0.0800
     40 H40       -12.9749   -0.8584   54.1797 H       1  ZINC001082278299    0.0900
     41 H41       -13.8996   -0.4411   55.6452 H       1  ZINC001082278299    0.0700
     42 H42       -11.2314   -0.5121   53.1378 H       1  ZINC001082278299    0.1000
     43 H43       -12.1573    0.9829   53.4129 H       1  ZINC001082278299    0.1000
     44 H44        -8.8153   -0.3074   53.0606 H       1  ZINC001082278299    0.1100
     45 H45        -7.0578    1.6972   52.9126 H       1  ZINC001082278299    0.0600
     46 H46        -7.2952    0.7805   51.4083 H       1  ZINC001082278299    0.1000
     47 H47        -8.5592    3.6211   53.2652 H       1  ZINC001082278299    0.0600
     48 H48        -9.2437    4.3956   51.8129 H       1  ZINC001082278299    0.1000
     49 H49       -10.9620    2.7204   51.6153 H       1  ZINC001082278299    0.0800
     50 H50       -10.9381    3.2017   53.3283 H       1  ZINC001082278299    0.0800
     51 H51        -7.9093   -0.7732   63.4641 H       1  ZINC001082278299    0.1300
     52 H52        -6.9509    1.1029   64.8775 H       1  ZINC001082278299    0.1000
     53 H53        -7.5505    2.3373   63.6455 H       1  ZINC001082278299    0.1000
     54 H54        -9.9341    1.5559   64.0223 H       1  ZINC001082278299    0.0900
     55 H55        -9.3345    0.3214   65.2544 H       1  ZINC001082278299    0.1000
@<TRIPOS>BOND
     1     1     2    1
     2     1    27    1
     3     1    28    1
     4     1    29    1
     5     2     3    2
     6     2    24    1
     7     3     4    1
     8     3    30    1
     9     4     5    2
    10     4     6   am
    11     6     7    1
    12     6    31    1
    13     7     8    1
    14     7    32    1
    15     7    33    1
    16     8     9    1
    17     8    14    1
    18     8    10    1
    19    10    11    1
    20    10    34    1
    21    10    35    1
    22    11    12    1
    23    11    36    1
    24    11    37    1
    25    12    13    1
    26    12    38    1
    27    12    39    1
    28    13    14    1
    29    13    40    1
    30    13    41    1
    31    14    15   am
    32    15    16    2
    33    15    17    1
    34    17    18    1
    35    17    42    1
    36    17    43    1
    37    18    23    1
    38    18    19    2
    39    19    20    1
    40    19    44    1
    41    20    21    1
    42    20    45    1
    43    20    46    1
    44    21    22    1
    45    22    23    1
    46    22    47    1
    47    22    48    1
    48    23    49    1
    49    23    50    1
    50    24    26    1
    51    24    25    1
    52    24    51    1
    53    25    26    1
    54    25    52    1
    55    25    53    1
    56    26    54    1
    57    26    55    1
@<TRIPOS>SUBSTRUCTURE
     1 ZINC001082278299        1 TEMP              0 ****  ****    0 ROOT


##########                                Name:    ZINC001119787528
##########                DOCK_Rotatable_Bonds:                   6
##########                         Heavy_Atoms:                  27
##########                    Molecular_Weight:             362.434
##########                DOCK_Rotatable_Bonds:                   6
##########                       Formal_Charge:          -0.0199998
##########                     HBond_Acceptors:                   7
##########                        HBond_Donors:                   1
##########                         Heavy_Atoms:                  27
##########                          Grid_Score:          -27.759291
##########                     Grid_vdw_energy:          -26.961491
##########                      Grid_es_energy:           -0.797800
##########           Internal_energy_repulsive:           10.328971

@<TRIPOS>MOLECULE
ZINC001119787528
 49 52 1 0 0
SMALL
USER_CHARGES


@<TRIPOS>ATOM
      1 C1         -9.4836    2.8530   64.6182 C.3     1  ZINC001119787528   -0.1700
      2 C2         -8.5239    2.9147   63.4282 C.3     1  ZINC001119787528    0.1000
      3 N3         -8.4474    1.5963   62.7938 N.pl3   1  ZINC001119787528   -0.4500
      4 C4         -8.2185    0.4168   63.4156 C.2     1  ZINC001119787528    0.1800
      5 N5         -8.2199   -0.5374   62.5214 N.2     1  ZINC001119787528   -0.4800
      6 C6         -8.4462   -0.0073   61.3175 C.2     1  ZINC001119787528   -0.0200
      7 C7         -8.5990    1.3260   61.4674 C.2     1  ZINC001119787528   -0.0100
      8 C8         -8.8800    2.2914   60.3460 C.3     1  ZINC001119787528   -0.0600
      9 C9         -8.5234    1.6193   59.0138 C.3     1  ZINC001119787528    0.1400
     10 N10        -9.0581    0.2495   59.0076 N.am    1  ZINC001119787528   -0.6200
     11 C11       -10.0124   -0.1149   58.1283 C.2     1  ZINC001119787528    0.7200
     12 O12       -10.4412    0.6928   57.3274 O.2     1  ZINC001119787528   -0.5600
     13 N13       -10.4910   -1.3749   58.1369 N.am    1  ZINC001119787528   -0.6600
     14 C14       -11.4751   -1.7507   57.2301 C.ar    1  ZINC001119787528    0.4200
     15 C15       -11.2563   -1.6323   55.8574 C.ar    1  ZINC001119787528   -0.2500
     16 C16       -12.2655   -2.0198   54.9964 C.ar    1  ZINC001119787528    0.1600
     17 N17       -13.3991   -2.4874   55.4983 N.ar    1  ZINC001119787528   -0.5300
     18 C18       -13.5746   -2.5868   56.8008 C.ar    1  ZINC001119787528    0.3500
     19 C19       -14.8810   -3.1251   57.3249 C.3     1  ZINC001119787528   -0.0100
     20 C20       -15.3643   -2.2557   58.4571 C.ar    1  ZINC001119787528   -0.0800
     21 C21       -15.9538   -1.0347   58.1877 C.ar    1  ZINC001119787528   -0.1000
     22 C22       -16.3971   -0.2372   59.2261 C.ar    1  ZINC001119787528   -0.1200
     23 C23       -16.2513   -0.6607   60.5338 C.ar    1  ZINC001119787528   -0.1200
     24 C24       -15.6626   -1.8822   60.8031 C.ar    1  ZINC001119787528   -0.1200
     25 C25       -15.2231   -2.6816   59.7645 C.ar    1  ZINC001119787528   -0.1000
     26 N26       -12.6376   -2.2338   57.6570 N.ar    1  ZINC001119787528   -0.5500
     27 C27        -8.5298   -0.7163   59.9866 C.3     1  ZINC001119787528    0.2000
     28 H28        -9.5405    3.8339   65.0903 H       1  ZINC001119787528    0.0800
     29 H29       -10.4741    2.5586   64.2713 H       1  ZINC001119787528    0.0600
     30 H30        -9.1198    2.1226   65.3409 H       1  ZINC001119787528    0.0600
     31 H31        -8.8877    3.6451   62.7055 H       1  ZINC001119787528    0.0900
     32 H32        -7.5334    3.2090   63.7752 H       1  ZINC001119787528    0.1000
     33 H33        -8.0602    0.2849   64.4758 H       1  ZINC001119787528    0.2100
     34 H34        -9.9369    2.5578   60.3494 H       1  ZINC001119787528    0.0800
     35 H35        -8.2748    3.1885   60.4761 H       1  ZINC001119787528    0.0900
     36 H36        -8.9612    2.1851   58.1915 H       1  ZINC001119787528    0.1100
     37 H37        -7.4398    1.5880   58.8999 H       1  ZINC001119787528    0.0800
     38 H38       -10.1487   -2.0192   58.7760 H       1  ZINC001119787528    0.4200
     39 H39       -10.3218   -1.2470   55.4771 H       1  ZINC001119787528    0.1800
     40 H40       -12.1320   -1.9420   53.9274 H       1  ZINC001119787528    0.1700
     41 H41       -15.6213   -3.1246   56.5249 H       1  ZINC001119787528    0.1000
     42 H42       -14.7360   -4.1435   57.6852 H       1  ZINC001119787528    0.1000
     43 H43       -16.0677   -0.7037   57.1660 H       1  ZINC001119787528    0.1300
     44 H44       -16.8570    0.7171   59.0158 H       1  ZINC001119787528    0.1200
     45 H45       -16.5970   -0.0374   61.3451 H       1  ZINC001119787528    0.1200
     46 H46       -15.5483   -2.2130   61.8248 H       1  ZINC001119787528    0.1200
     47 H47       -14.7632   -3.6358   59.9750 H       1  ZINC001119787528    0.1200
     48 H48        -7.5354   -1.0447   59.6841 H       1  ZINC001119787528    0.0900
     49 H49        -9.1984   -1.5740   60.0594 H       1  ZINC001119787528    0.0900
@<TRIPOS>BOND
     1     1     2    1
     2     1    28    1
     3     1    29    1
     4     1    30    1
     5     2     3    1
     6     2    31    1
     7     2    32    1
     8     3     7    1
     9     3     4    1
    10     4     5    2
    11     4    33    1
    12     5     6    1
    13     6    27    1
    14     6     7    2
    15     7     8    1
    16     8     9    1
    17     8    34    1
    18     8    35    1
    19     9    10    1
    20     9    36    1
    21     9    37    1
    22    10    11   am
    23    10    27    1
    24    11    12    2
    25    11    13   am
    26    13    14    1
    27    13    38    1
    28    14    26   ar
    29    14    15   ar
    30    15    16   ar
    31    15    39    1
    32    16    17   ar
    33    16    40    1
    34    17    18   ar
    35    18    19    1
    36    18    26   ar
    37    19    20    1
    38    19    41    1
    39    19    42    1
    40    20    25   ar
    41    20    21   ar
    42    21    22   ar
    43    21    43    1
    44    22    23   ar
    45    22    44    1
    46    23    24   ar
    47    23    45    1
    48    24    25   ar
    49    24    46    1
    50    25    47    1
    51    27    48    1
    52    27    49    1
@<TRIPOS>SUBSTRUCTURE
     1 ZINC001119787528        1 TEMP              0 ****  ****    0 ROOT


##########                                Name:    ZINC000543625960
##########                DOCK_Rotatable_Bonds:                   8
##########                         Heavy_Atoms:                  29
##########                    Molecular_Weight:             416.544
##########                DOCK_Rotatable_Bonds:                   8
##########                       Formal_Charge:           -0.010001
##########                     HBond_Acceptors:                   8
##########                        HBond_Donors:                   2
##########                         Heavy_Atoms:                  29
##########                          Grid_Score:          -27.751377
##########                     Grid_vdw_energy:          -26.348915
##########                      Grid_es_energy:           -1.402462
##########           Internal_energy_repulsive:           18.481312

@<TRIPOS>MOLECULE
ZINC000543625960
 57 59 1 0 0
SMALL
USER_CHARGES


@<TRIPOS>ATOM
      1 C1         -2.4065    3.9185   52.9851 C.3     1  ZINC000543625960   -0.1500
      2 C2         -2.9248    4.6191   54.2426 C.3     1  ZINC000543625960   -0.1300
      3 C3         -3.6917    3.6155   55.1062 C.3     1  ZINC000543625960    0.1500
      4 H4         -4.1911    4.1426   55.9191 H       1  ZINC000543625960    0.0800
      5 C5         -2.7147    2.5911   55.6868 C.3     1  ZINC000543625960   -0.1700
      6 N6         -4.6901    2.9268   54.2845 N.am    1  ZINC000543625960   -1.1100
      7 S7         -6.1961    3.5861   54.0856 S.o2    1  ZINC000543625960    2.7000
      8 O8         -5.9947    4.9138   53.6212 O.2     1  ZINC000543625960   -0.9600
      9 O9         -6.9652    2.6234   53.3778 O.2     1  ZINC000543625960   -0.9500
     10 C10        -6.9208    3.7232   55.6858 C.ar    1  ZINC000543625960   -0.6600
     11 C11        -6.5966    4.7914   56.5015 C.ar    1  ZINC000543625960   -0.0400
     12 C12        -7.1632    4.9027   57.7582 C.ar    1  ZINC000543625960   -0.1200
     13 C13        -8.0551    3.9464   58.2022 C.ar    1  ZINC000543625960   -0.0600
     14 C14        -8.3832    2.8723   57.3850 C.ar    1  ZINC000543625960    0.1500
     15 N15        -9.2867    1.9015   57.8320 N.am    1  ZINC000543625960   -0.6800
     16 C16        -8.9801    1.1355   58.8976 C.2     1  ZINC000543625960    0.7200
     17 O17        -7.9186    1.2879   59.4707 O.2     1  ZINC000543625960   -0.5600
     18 N18        -9.8502    0.2005   59.3282 N.am    1  ZINC000543625960   -0.6300
     19 C19       -11.1660   -0.0890   58.7296 C.3     1  ZINC000543625960    0.0900
     20 C20       -11.4710   -1.5536   59.1320 C.3     1  ZINC000543625960   -0.1000
     21 H21       -12.5447   -1.7411   59.1395 H       1  ZINC000543625960    0.1000
     22 C22       -10.7517   -2.5376   58.2071 C.3     1  ZINC000543625960   -0.1500
     23 C23       -10.8865   -1.6103   60.5682 C.3     1  ZINC000543625960   -0.1200
     24 C24        -9.6416   -0.7038   60.4684 C.3     1  ZINC000543625960    0.2000
     25 H25        -8.7518   -1.3125   60.3072 H       1  ZINC000543625960    0.0900
     26 C26        -9.4900    0.0999   61.7341 C.ar    1  ZINC000543625960   -0.1400
     27 C27        -8.3446   -0.0162   62.5064 C.ar    1  ZINC000543625960   -0.0600
     28 C28        -8.2486    0.7432   63.6628 C.ar    1  ZINC000543625960   -0.1700
     29 C29        -9.2902    1.5843   64.0045 C.ar    1  ZINC000543625960    0.1000
     30 N30       -10.3655    1.6693   63.2455 N.ar    1  ZINC000543625960   -0.4800
     31 C31       -10.4888    0.9664   62.1367 C.ar    1  ZINC000543625960    0.1200
     32 C32        -7.8166    2.7663   56.1219 C.ar    1  ZINC000543625960   -0.0500
     33 H33        -1.8603    4.6336   52.3700 H       1  ZINC000543625960    0.0600
     34 H34        -1.7421    3.1031   53.2711 H       1  ZINC000543625960    0.0600
     35 H35        -3.2479    3.5199   52.4184 H       1  ZINC000543625960    0.0500
     36 H36        -2.0834    5.0178   54.8094 H       1  ZINC000543625960    0.0700
     37 H37        -3.5892    5.4345   53.9567 H       1  ZINC000543625960    0.0800
     38 H38        -1.9719    3.1035   56.2982 H       1  ZINC000543625960    0.0700
     39 H39        -3.2610    1.8761   56.3020 H       1  ZINC000543625960    0.0700
     40 H40        -2.2152    2.0640   54.8740 H       1  ZINC000543625960    0.0600
     41 H41        -4.4690    2.0846   53.8570 H       1  ZINC000543625960    0.4200
     42 H42        -5.8991    5.5404   56.1568 H       1  ZINC000543625960    0.1400
     43 H43        -6.9077    5.7380   58.3931 H       1  ZINC000543625960    0.1400
     44 H44        -8.4968    4.0334   59.1838 H       1  ZINC000543625960    0.1400
     45 H45       -10.1335    1.7800   57.3749 H       1  ZINC000543625960    0.4100
     46 H46       -11.9233    0.5815   59.1358 H       1  ZINC000543625960    0.0700
     47 H47       -11.1180    0.0041   57.6447 H       1  ZINC000543625960    0.0800
     48 H48        -9.6775   -2.3577   58.2501 H       1  ZINC000543625960    0.0600
     49 H49       -10.9625   -3.5579   58.5277 H       1  ZINC000543625960    0.0600
     50 H50       -11.1029   -2.3982   57.1847 H       1  ZINC000543625960    0.0600
     51 H51       -11.5997   -1.2137   61.2908 H       1  ZINC000543625960    0.0800
     52 H52       -10.5990   -2.6291   60.8276 H       1  ZINC000543625960    0.0900
     53 H53        -7.5463   -0.6824   62.2146 H       1  ZINC000543625960    0.1300
     54 H54        -7.3708    0.6777   64.2887 H       1  ZINC000543625960    0.1400
     55 H55        -9.2233    2.1788   64.9037 H       1  ZINC000543625960    0.1600
     56 H56       -11.3844    1.0625   61.5407 H       1  ZINC000543625960    0.1400
     57 H57        -8.0697    1.9322   55.4841 H       1  ZINC000543625960    0.1400
@<TRIPOS>BOND
     1     1     2    1
     2     1    33    1
     3     1    34    1
     4     1    35    1
     5     2     3    1
     6     2    36    1
     7     2    37    1
     8     3     4    1
     9     3     5    1
    10     3     6    1
    11     5    38    1
    12     5    39    1
    13     5    40    1
    14     6     7   am
    15     6    41    1
    16     7     8    2
    17     7     9    2
    18     7    10    1
    19    10    32   ar
    20    10    11   ar
    21    11    12   ar
    22    11    42    1
    23    12    13   ar
    24    12    43    1
    25    13    14   ar
    26    13    44    1
    27    14    15    1
    28    14    32   ar
    29    15    16   am
    30    15    45    1
    31    16    17    2
    32    16    18   am
    33    18    24    1
    34    18    19    1
    35    19    20    1
    36    19    46    1
    37    19    47    1
    38    20    21    1
    39    20    22    1
    40    20    23    1
    41    22    48    1
    42    22    49    1
    43    22    50    1
    44    23    24    1
    45    23    51    1
    46    23    52    1
    47    24    25    1
    48    24    26    1
    49    26    31   ar
    50    26    27   ar
    51    27    28   ar
    52    27    53    1
    53    28    29   ar
    54    28    54    1
    55    29    30   ar
    56    29    55    1
    57    30    31   ar
    58    31    56    1
    59    32    57    1
@<TRIPOS>SUBSTRUCTURE
     1 ZINC000543625960        1 TEMP              0 ****  ****    0 ROOT


##########                                Name:    ZINC000076573199
##########                DOCK_Rotatable_Bonds:                  10
##########                         Heavy_Atoms:                  24
##########                    Molecular_Weight:             333.431
##########                DOCK_Rotatable_Bonds:                  10
##########                       Formal_Charge:          -0.0200009
##########                     HBond_Acceptors:                   6
##########                        HBond_Donors:                   3
##########                         Heavy_Atoms:                  24
##########                          Grid_Score:          -27.746344
##########                     Grid_vdw_energy:          -25.969273
##########                      Grid_es_energy:           -1.777071
##########           Internal_energy_repulsive:           13.974236

@<TRIPOS>MOLECULE
ZINC000076573199
 51 51 1 0 0
SMALL
USER_CHARGES


@<TRIPOS>ATOM
      1 C1        -11.9303   -0.6436   54.7019 C.3     1  ZINC000076573199   -0.1500
      2 C2        -10.4685   -0.6721   54.2509 C.3     1  ZINC000076573199   -0.1200
      3 C3        -10.2404    0.4082   53.1917 C.3     1  ZINC000076573199   -0.1000
      4 H4        -10.7745    1.3147   53.4764 H       1  ZINC000076573199    0.0700
      5 C5        -10.7586   -0.0857   51.8396 C.3     1  ZINC000076573199   -0.1500
      6 C6         -8.7442    0.7100   53.0851 C.3     1  ZINC000076573199   -0.1200
      7 C7         -8.4615    2.0978   53.6638 C.3     1  ZINC000076573199    0.1400
      8 H8         -9.1094    2.8308   53.1833 H       1  ZINC000076573199    0.1000
      9 C9         -8.7322    2.0874   55.1696 C.3     1  ZINC000076573199   -0.1700
     10 N10        -7.0605    2.4515   53.4219 N.am    1  ZINC000076573199   -0.6900
     11 C11        -6.7505    3.3844   52.4997 C.2     1  ZINC000076573199    0.5100
     12 O12        -7.6318    3.9302   51.8687 O.2     1  ZINC000076573199   -0.5100
     13 C13        -5.3224    3.7462   52.2545 C.2     1  ZINC000076573199    0.5100
     14 O14        -5.0037    4.9112   52.1337 O.2     1  ZINC000076573199   -0.5000
     15 N15        -4.3876    2.7793   52.1672 N.am    1  ZINC000076573199   -0.6400
     16 C16        -3.0516    3.1179   51.9377 C.ar    1  ZINC000076573199    0.1500
     17 C17        -2.2352    3.4873   52.9999 C.ar    1  ZINC000076573199   -0.1300
     18 C18        -0.9139    3.8218   52.7735 C.ar    1  ZINC000076573199   -0.0800
     19 C19        -0.4000    3.7901   51.4915 C.ar    1  ZINC000076573199   -0.1200
     20 C20         1.0419    4.1553   51.2495 C.3     1  ZINC000076573199   -0.1100
     21 C21        -1.2110    3.4216   50.4250 C.ar    1  ZINC000076573199    0.1600
     22 N22        -0.6894    3.3900   49.1270 N.am    1  ZINC000076573199   -0.6700
     23 C23        -0.3029    2.2183   48.5845 C.2     1  ZINC000076573199    0.5100
     24 C24         0.2589    2.1841   47.1866 C.3     1  ZINC000076573199   -0.1700
     25 O25        -0.4070    1.1914   49.2214 O.2     1  ZINC000076573199   -0.5200
     26 C26        -2.5365    3.0801   50.6491 C.ar    1  ZINC000076573199   -0.1400
     27 H27       -12.5783   -0.8315   53.8457 H       1  ZINC000076573199    0.0600
     28 H28       -12.0928   -1.4132   55.4564 H       1  ZINC000076573199    0.0500
     29 H29       -12.1612    0.3342   55.1245 H       1  ZINC000076573199    0.0500
     30 H30        -9.8205   -0.4842   55.1069 H       1  ZINC000076573199    0.0600
     31 H31       -10.2377   -1.6499   53.8282 H       1  ZINC000076573199    0.0600
     32 H32       -10.1688   -0.9433   51.5157 H       1  ZINC000076573199    0.0600
     33 H33       -11.8039   -0.3794   51.9364 H       1  ZINC000076573199    0.0600
     34 H34       -10.6724    0.7134   51.1035 H       1  ZINC000076573199    0.0500
     35 H35        -8.1820   -0.0380   53.6439 H       1  ZINC000076573199    0.0800
     36 H36        -8.4421    0.6844   52.0381 H       1  ZINC000076573199    0.0700
     37 H37        -8.5308    3.0761   55.5819 H       1  ZINC000076573199    0.0600
     38 H38        -9.7746    1.8242   55.3496 H       1  ZINC000076573199    0.0700
     39 H39        -8.0842    1.3544   55.6502 H       1  ZINC000076573199    0.0600
     40 H40        -6.3560    2.0145   53.9255 H       1  ZINC000076573199    0.4100
     41 H41        -4.6424    1.8483   52.2638 H       1  ZINC000076573199    0.4200
     42 H42        -2.6341    3.5134   54.0031 H       1  ZINC000076573199    0.1400
     43 H43        -0.2815    4.1089   53.6005 H       1  ZINC000076573199    0.1300
     44 H44         1.6606    3.2610   51.3241 H       1  ZINC000076573199    0.0700
     45 H45         1.1453    4.5866   50.2539 H       1  ZINC000076573199    0.0600
     46 H46         1.3627    4.8823   51.9956 H       1  ZINC000076573199    0.0700
     47 H47        -0.6060    4.2112   48.6176 H       1  ZINC000076573199    0.4100
     48 H48         1.1542    2.8042   47.1395 H       1  ZINC000076573199    0.0900
     49 H49         0.5136    1.1577   46.9223 H       1  ZINC000076573199    0.1000
     50 H50        -0.4846    2.5657   46.4868 H       1  ZINC000076573199    0.0900
     51 H51        -3.1688    2.7933   49.8218 H       1  ZINC000076573199    0.1400
@<TRIPOS>BOND
     1     1     2    1
     2     1    27    1
     3     1    28    1
     4     1    29    1
     5     2     3    1
     6     2    30    1
     7     2    31    1
     8     3     4    1
     9     3     5    1
    10     3     6    1
    11     5    32    1
    12     5    33    1
    13     5    34    1
    14     6     7    1
    15     6    35    1
    16     6    36    1
    17     7     8    1
    18     7     9    1
    19     7    10    1
    20     9    37    1
    21     9    38    1
    22     9    39    1
    23    10    11   am
    24    10    40    1
    25    11    12    2
    26    11    13    1
    27    13    14    2
    28    13    15   am
    29    15    16    1
    30    15    41    1
    31    16    26   ar
    32    16    17   ar
    33    17    18   ar
    34    17    42    1
    35    18    19   ar
    36    18    43    1
    37    19    20    1
    38    19    21   ar
    39    20    44    1
    40    20    45    1
    41    20    46    1
    42    21    22    1
    43    21    26   ar
    44    22    23   am
    45    22    47    1
    46    23    24    1
    47    23    25    2
    48    24    48    1
    49    24    49    1
    50    24    50    1
    51    26    51    1
@<TRIPOS>SUBSTRUCTURE
     1 ZINC000076573199        1 TEMP              0 ****  ****    0 ROOT


##########                                Name:    ZINC001296589646
##########                DOCK_Rotatable_Bonds:                   8
##########                         Heavy_Atoms:                  29
##########                    Molecular_Weight:             398.548
##########                DOCK_Rotatable_Bonds:                   8
##########                       Formal_Charge:          -0.0200008
##########                     HBond_Acceptors:                   6
##########                        HBond_Donors:                   0
##########                         Heavy_Atoms:                  29
##########                          Grid_Score:          -27.744698
##########                     Grid_vdw_energy:          -26.852039
##########                      Grid_es_energy:           -0.892658
##########           Internal_energy_repulsive:           25.667046

@<TRIPOS>MOLECULE
ZINC001296589646
 63 66 1 0 0
SMALL
USER_CHARGES


@<TRIPOS>ATOM
      1 C1         -8.7488    5.8265   53.5822 C.3     1  ZINC001296589646   -0.1500
      2 C2         -9.0272    4.3415   53.8232 C.3     1  ZINC001296589646    0.0500
      3 O3         -8.2667    3.5584   52.9010 O.3     1  ZINC001296589646   -0.3600
      4 C4         -7.8446    2.2959   53.4204 C.3     1  ZINC001296589646    0.1800
      5 C5         -6.7606    2.4781   54.4514 C.2     1  ZINC001296589646    0.1500
      6 N6         -6.7777    2.0349   55.6765 N.2     1  ZINC001296589646   -0.2600
      7 N7         -5.6936    2.3685   56.2809 N.2     1  ZINC001296589646   -0.3200
      8 C8         -4.9204    3.0479   55.4671 C.2     1  ZINC001296589646    0.3600
      9 N9         -3.6727    3.5736   55.7632 N.3     1  ZINC001296589646   -0.4300
     10 C10        -3.6950    4.3009   57.0580 C.3     1  ZINC001296589646    0.0300
     11 C11        -2.2013    4.3421   57.4673 C.3     1  ZINC001296589646   -0.1200
     12 C12        -1.6780    2.9626   57.0055 C.3     1  ZINC001296589646   -0.1000
     13 H13        -1.6742    2.2609   57.8394 H       1  ZINC001296589646    0.0800
     14 C14        -0.2712    3.0973   56.4194 C.3     1  ZINC001296589646   -0.1400
     15 C15        -2.6688    2.4991   55.9214 C.3     1  ZINC001296589646    0.0500
     16 N16        -5.5743    3.1341   54.2726 N.pl3   1  ZINC001296589646   -0.4600
     17 C17        -5.1066    3.7999   53.0543 C.3     1  ZINC001296589646    0.1000
     18 C18        -3.9257    3.0225   52.4695 C.3     1  ZINC001296589646   -0.1300
     19 C19        -3.1075    3.9439   51.5626 C.3     1  ZINC001296589646   -0.0500
     20 H20        -3.7776    4.4836   50.8935 H       1  ZINC001296589646    0.0800
     21 C21        -2.3290    4.9435   52.4201 C.3     1  ZINC001296589646   -0.1500
     22 C22        -2.1421    3.1205   50.7496 C.ar    1  ZINC001296589646   -0.0800
     23 C23        -2.4304    2.8184   49.4318 C.ar    1  ZINC001296589646   -0.1100
     24 C24        -1.5448    2.0631   48.6861 C.ar    1  ZINC001296589646   -0.1200
     25 C25        -0.3707    1.6100   49.2580 C.ar    1  ZINC001296589646   -0.1200
     26 C26        -0.0820    1.9128   50.5756 C.ar    1  ZINC001296589646   -0.1200
     27 C27        -0.9655    2.6718   51.3200 C.ar    1  ZINC001296589646   -0.1200
     28 C28        -7.3734    1.3571   52.2765 C.3     1  ZINC001296589646   -0.1400
     29 C29        -8.7252    0.7611   51.8093 C.3     1  ZINC001296589646    0.0600
     30 O30        -9.5004    0.6047   53.0084 O.3     1  ZINC001296589646   -0.3700
     31 C31        -9.0397    1.5176   54.0115 C.3     1  ZINC001296589646    0.0400
     32 H32        -7.7053    6.0424   53.8115 H       1  ZINC001296589646    0.0600
     33 H33        -8.9491    6.0689   52.5386 H       1  ZINC001296589646    0.0700
     34 H34        -9.3936    6.4261   54.2248 H       1  ZINC001296589646    0.0700
     35 H35        -8.7435    4.0794   54.8426 H       1  ZINC001296589646    0.0500
     36 H36       -10.0892    4.1428   53.6792 H       1  ZINC001296589646    0.0600
     37 H37        -4.0858    5.3098   56.9259 H       1  ZINC001296589646    0.0900
     38 H38        -4.2812    3.7538   57.7964 H       1  ZINC001296589646    0.0600
     39 H39        -1.6809    5.1460   56.9469 H       1  ZINC001296589646    0.0800
     40 H40        -2.1001    4.4512   58.5471 H       1  ZINC001296589646    0.0800
     41 H41         0.4071    3.4729   57.1856 H       1  ZINC001296589646    0.0600
     42 H42         0.0738    2.1225   56.0750 H       1  ZINC001296589646    0.0600
     43 H43        -0.2922    3.7927   55.5802 H       1  ZINC001296589646    0.0600
     44 H44        -3.1580    1.5771   56.2353 H       1  ZINC001296589646    0.0800
     45 H45        -2.1422    2.3413   54.9802 H       1  ZINC001296589646    0.0900
     46 H46        -5.9161    3.8339   52.3252 H       1  ZINC001296589646    0.1100
     47 H47        -4.7903    4.8152   53.2937 H       1  ZINC001296589646    0.1000
     48 H48        -3.2949    2.6563   53.2795 H       1  ZINC001296589646    0.0800
     49 H49        -4.2982    2.1784   51.8890 H       1  ZINC001296589646    0.0700
     50 H50        -1.7460    5.5999   51.7740 H       1  ZINC001296589646    0.0600
     51 H51        -3.0273    5.5390   53.0081 H       1  ZINC001296589646    0.0600
     52 H52        -1.6589    4.4037   53.0892 H       1  ZINC001296589646    0.0600
     53 H53        -3.3478    3.1724   48.9849 H       1  ZINC001296589646    0.1200
     54 H54        -1.7705    1.8266   47.6568 H       1  ZINC001296589646    0.1200
     55 H55         0.3208    1.0193   48.6756 H       1  ZINC001296589646    0.1200
     56 H56         0.8352    1.5585   51.0225 H       1  ZINC001296589646    0.1200
     57 H57        -0.7399    2.9083   52.3493 H       1  ZINC001296589646    0.1200
     58 H58        -6.8957    1.9224   51.4760 H       1  ZINC001296589646    0.1000
     59 H59        -6.7106    0.5788   52.6547 H       1  ZINC001296589646    0.1000
     60 H60        -9.2237    1.4459   51.1232 H       1  ZINC001296589646    0.0700
     61 H61        -8.5674   -0.2059   51.3319 H       1  ZINC001296589646    0.0900
     62 H62        -8.7207    0.9655   54.8955 H       1  ZINC001296589646    0.1000
     63 H63        -9.8384    2.2108   54.2753 H       1  ZINC001296589646    0.0800
@<TRIPOS>BOND
     1     1     2    1
     2     1    32    1
     3     1    33    1
     4     1    34    1
     5     2     3    1
     6     2    35    1
     7     2    36    1
     8     3     4    1
     9     4    31    1
    10     4     5    1
    11     4    28    1
    12     5    16    1
    13     5     6    2
    14     6     7    1
    15     7     8    2
    16     8     9    1
    17     8    16    1
    18     9    15    1
    19     9    10    1
    20    10    11    1
    21    10    37    1
    22    10    38    1
    23    11    12    1
    24    11    39    1
    25    11    40    1
    26    12    13    1
    27    12    14    1
    28    12    15    1
    29    14    41    1
    30    14    42    1
    31    14    43    1
    32    15    44    1
    33    15    45    1
    34    16    17    1
    35    17    18    1
    36    17    46    1
    37    17    47    1
    38    18    19    1
    39    18    48    1
    40    18    49    1
    41    19    20    1
    42    19    21    1
    43    19    22    1
    44    21    50    1
    45    21    51    1
    46    21    52    1
    47    22    27   ar
    48    22    23   ar
    49    23    24   ar
    50    23    53    1
    51    24    25   ar
    52    24    54    1
    53    25    26   ar
    54    25    55    1
    55    26    27   ar
    56    26    56    1
    57    27    57    1
    58    28    29    1
    59    28    58    1
    60    28    59    1
    61    29    30    1
    62    29    60    1
    63    29    61    1
    64    30    31    1
    65    31    62    1
    66    31    63    1
@<TRIPOS>SUBSTRUCTURE
     1 ZINC001296589646        1 TEMP              0 ****  ****    0 ROOT


##########                                Name:    ZINC001400108193
##########                DOCK_Rotatable_Bonds:                   9
##########                         Heavy_Atoms:                  25
##########                    Molecular_Weight:              344.41
##########                DOCK_Rotatable_Bonds:                   9
##########                       Formal_Charge:           0.0200001
##########                     HBond_Acceptors:                   6
##########                        HBond_Donors:                   2
##########                         Heavy_Atoms:                  25
##########                          Grid_Score:          -27.727280
##########                     Grid_vdw_energy:          -27.269764
##########                      Grid_es_energy:           -0.457515
##########           Internal_energy_repulsive:            7.731695

@<TRIPOS>MOLECULE
ZINC001400108193
 49 50 1 0 0
SMALL
USER_CHARGES


@<TRIPOS>ATOM
      1 C1        -10.0293   -0.5111   52.5746 C.3     1  ZINC001400108193   -0.0800
      2 C2        -11.4029   -0.3997   53.1845 C.2     1  ZINC001400108193   -0.0100
      3 C3        -11.8958   -1.1991   54.1429 C.2     1  ZINC001400108193   -0.1600
      4 C4        -13.2561   -0.7122   54.4152 C.2     1  ZINC001400108193   -0.2300
      5 C5        -14.2184   -1.2558   55.3901 C.2     1  ZINC001400108193    0.5900
      6 O6        -15.3113   -0.7382   55.5192 O.2     1  ZINC001400108193   -0.5300
      7 N7        -13.8872   -2.3267   56.1384 N.am    1  ZINC001400108193   -0.7300
      8 C8        -14.8432   -2.8661   57.1087 C.3     1  ZINC001400108193    0.1100
      9 C9        -14.5879   -2.2370   58.4799 C.3     1  ZINC001400108193    0.1300
     10 H10       -14.6706   -1.1529   58.4033 H       1  ZINC001400108193    0.1000
     11 C11       -15.6215   -2.7580   59.4805 C.3     1  ZINC001400108193   -0.1600
     12 N12       -13.2426   -2.5930   58.9376 N.am    1  ZINC001400108193   -0.7300
     13 C13       -12.2356   -1.7042   58.8258 C.2     1  ZINC001400108193    0.5200
     14 O14       -12.4435   -0.6092   58.3476 O.2     1  ZINC001400108193   -0.5100
     15 C15       -10.8512   -2.0711   59.2950 C.3     1  ZINC001400108193    0.0700
     16 H16       -10.8912   -2.3776   60.3403 H       1  ZINC001400108193    0.1000
     17 C17       -10.3137   -3.2244   58.4455 C.3     1  ZINC001400108193   -0.1800
     18 O18        -9.9882   -0.9398   59.1631 O.3     1  ZINC001400108193   -0.2800
     19 C19        -9.4819   -0.4131   60.3090 C.ar    1  ZINC001400108193    0.1200
     20 C20       -10.0735    0.7038   60.8810 C.ar    1  ZINC001400108193   -0.2100
     21 C21        -9.5573    1.2371   62.0461 C.ar    1  ZINC001400108193   -0.0800
     22 C22        -8.4488    0.6617   62.6394 C.ar    1  ZINC001400108193   -0.1200
     23 C23        -7.8840    1.2492   63.9071 C.3     1  ZINC001400108193   -0.1100
     24 C24        -7.8605   -0.4547   62.0741 C.ar    1  ZINC001400108193   -0.0800
     25 C25        -8.3730   -0.9918   60.9091 C.ar    1  ZINC001400108193   -0.1400
     26 C26       -13.4436    0.3440   53.5725 C.2     1  ZINC001400108193    0.0200
     27 O27       -12.3285    0.5149   52.8557 O.3     1  ZINC001400108193   -0.1700
     28 H28       -10.0689   -1.1716   51.7084 H       1  ZINC001400108193    0.0900
     29 H29        -9.6889    0.4765   52.2632 H       1  ZINC001400108193    0.0800
     30 H30        -9.3367   -0.9186   53.3111 H       1  ZINC001400108193    0.0900
     31 H31       -11.3953   -2.0300   54.6175 H       1  ZINC001400108193    0.1600
     32 H32       -13.0160   -2.7403   56.0345 H       1  ZINC001400108193    0.4000
     33 H33       -14.7213   -3.9471   57.1766 H       1  ZINC001400108193    0.0800
     34 H34       -15.8582   -2.6345   56.7860 H       1  ZINC001400108193    0.0900
     35 H35       -15.4397   -2.3098   60.4572 H       1  ZINC001400108193    0.0700
     36 H36       -16.6225   -2.4931   59.1398 H       1  ZINC001400108193    0.0700
     37 H37       -15.5388   -3.8422   59.5570 H       1  ZINC001400108193    0.0600
     38 H38       -13.0765   -3.4683   59.3211 H       1  ZINC001400108193    0.4000
     39 H39       -10.9720   -4.0873   58.5460 H       1  ZINC001400108193    0.0800
     40 H40       -10.2737   -2.9178   57.4002 H       1  ZINC001400108193    0.0800
     41 H41        -9.3124   -3.4898   58.7848 H       1  ZINC001400108193    0.0800
     42 H42       -10.9366    1.1563   60.4154 H       1  ZINC001400108193    0.1300
     43 H43       -10.0172    2.1068   62.4916 H       1  ZINC001400108193    0.1300
     44 H44        -8.3613    0.7818   64.7682 H       1  ZINC001400108193    0.0700
     45 H45        -6.8098    1.0682   63.9442 H       1  ZINC001400108193    0.0700
     46 H46        -8.0724    2.3227   63.9254 H       1  ZINC001400108193    0.0700
     47 H47        -6.9973   -0.9047   62.5417 H       1  ZINC001400108193    0.1300
     48 H48        -7.9109   -1.8615   60.4660 H       1  ZINC001400108193    0.1300
     49 H49       -14.3398    0.9423   53.4990 H       1  ZINC001400108193    0.2100
@<TRIPOS>BOND
     1     1     2    1
     2     1    28    1
     3     1    29    1
     4     1    30    1
     5     2    27    1
     6     2     3    2
     7     3     4    1
     8     3    31    1
     9     4     5    1
    10     4    26    2
    11     5     6    2
    12     5     7   am
    13     7     8    1
    14     7    32    1
    15     8     9    1
    16     8    33    1
    17     8    34    1
    18     9    10    1
    19     9    11    1
    20     9    12    1
    21    11    35    1
    22    11    36    1
    23    11    37    1
    24    12    13   am
    25    12    38    1
    26    13    14    2
    27    13    15    1
    28    15    16    1
    29    15    17    1
    30    15    18    1
    31    17    39    1
    32    17    40    1
    33    17    41    1
    34    18    19    1
    35    19    25   ar
    36    19    20   ar
    37    20    21   ar
    38    20    42    1
    39    21    22   ar
    40    21    43    1
    41    22    23    1
    42    22    24   ar
    43    23    44    1
    44    23    45    1
    45    23    46    1
    46    24    25   ar
    47    24    47    1
    48    25    48    1
    49    26    27    1
    50    26    49    1
@<TRIPOS>SUBSTRUCTURE
     1 ZINC001400108193        1 TEMP              0 ****  ****    0 ROOT


##########                                Name:    ZINC001356153960
##########                DOCK_Rotatable_Bonds:                   8
##########                         Heavy_Atoms:                  24
##########                    Molecular_Weight:             334.366
##########                DOCK_Rotatable_Bonds:                   8
##########                       Formal_Charge:           0.0100003
##########                     HBond_Acceptors:                   6
##########                        HBond_Donors:                   1
##########                         Heavy_Atoms:                  24
##########                          Grid_Score:          -27.717592
##########                     Grid_vdw_energy:          -27.246864
##########                      Grid_es_energy:           -0.470727
##########           Internal_energy_repulsive:           15.702510

@<TRIPOS>MOLECULE
ZINC001356153960
 44 46 1 0 0
SMALL
USER_CHARGES


@<TRIPOS>ATOM
      1 O1         -3.2869    2.1143   52.0070 O.2     1  ZINC001356153960   -0.5200
      2 C2         -3.5110    2.7888   51.0234 C.2     1  ZINC001356153960    0.5100
      3 N3         -4.7022    3.4043   50.8856 N.am    1  ZINC001356153960   -0.7000
      4 C4         -5.7239    3.2639   51.9260 C.3     1  ZINC001356153960    0.1300
      5 C5         -6.8532    2.3673   51.4143 C.3     1  ZINC001356153960   -0.0800
      6 H6         -7.3210    2.8114   50.5357 H       1  ZINC001356153960    0.0900
      7 C7         -6.3251    0.9893   51.0898 C.2     1  ZINC001356153960   -0.1700
      8 C8         -7.1180    0.0613   51.5522 C.2     1  ZINC001356153960   -0.1600
      9 C9         -8.3070    0.6657   52.2622 C.3     1  ZINC001356153960   -0.1000
     10 C10        -7.9037    2.1371   52.5253 C.3     1  ZINC001356153960   -0.1200
     11 C11        -2.4688    2.9321   49.9621 C.2     1  ZINC001356153960    0.5100
     12 O12        -2.7194    2.6125   48.8185 O.2     1  ZINC001356153960   -0.5100
     13 N13        -1.2505    3.4162   50.2749 N.am    1  ZINC001356153960   -0.5500
     14 C14        -0.2287    3.5567   49.2345 C.3     1  ZINC001356153960    0.1300
     15 C15         0.4469    2.2284   49.0114 C.ar    1  ZINC001356153960   -0.1600
     16 C16         1.1257    1.6159   50.0476 C.ar    1  ZINC001356153960   -0.0300
     17 C17         1.7411    0.3948   49.8459 C.ar    1  ZINC001356153960   -0.1700
     18 C18         1.6878   -0.2109   48.6021 C.ar    1  ZINC001356153960    0.1400
     19 F19         2.2938   -1.4019   48.4038 F       1  ZINC001356153960   -0.1300
     20 C20         1.0129    0.4045   47.5615 C.ar    1  ZINC001356153960   -0.2000
     21 C21         0.3922    1.6244   47.7662 C.ar    1  ZINC001356153960    0.1500
     22 F22        -0.2663    2.2261   46.7517 F       1  ZINC001356153960   -0.1200
     23 C23        -0.9480    3.8023   51.6555 C.3     1  ZINC001356153960    0.0700
     24 C24        -1.5672    5.1004   52.1778 C.3     1  ZINC001356153960   -0.1900
     25 C25        -0.0695    5.0368   51.8675 C.3     1  ZINC001356153960   -0.1800
     26 H26        -4.8829    3.9401   50.0976 H       1  ZINC001356153960    0.4100
     27 H27        -5.2787    2.8161   52.8145 H       1  ZINC001356153960    0.0800
     28 H28        -6.1249    4.2461   52.1764 H       1  ZINC001356153960    0.0800
     29 H29        -5.4114    0.7974   50.5469 H       1  ZINC001356153960    0.1200
     30 H30        -6.9466   -0.9993   51.4422 H       1  ZINC001356153960    0.1300
     31 H31        -9.1909    0.6240   51.6256 H       1  ZINC001356153960    0.0800
     32 H32        -8.4923    0.1461   53.2023 H       1  ZINC001356153960    0.0700
     33 H33        -7.4587    2.2496   53.5140 H       1  ZINC001356153960    0.0800
     34 H34        -8.7556    2.8060   52.4031 H       1  ZINC001356153960    0.0800
     35 H35        -0.6973    3.8863   48.3073 H       1  ZINC001356153960    0.0900
     36 H36         0.5114    4.2925   49.5492 H       1  ZINC001356153960    0.1400
     37 H37         1.1719    2.0899   51.0170 H       1  ZINC001356153960    0.1600
     38 H38         2.2679   -0.0848   50.6576 H       1  ZINC001356153960    0.1400
     39 H39         0.9710   -0.0670   46.5909 H       1  ZINC001356153960    0.1500
     40 H40        -0.8369    2.9784   52.3604 H       1  ZINC001356153960    0.1400
     41 H41        -2.1994    5.6671   51.4943 H       1  ZINC001356153960    0.1400
     42 H42        -1.8629    5.1305   53.2264 H       1  ZINC001356153960    0.0900
     43 H43         0.6193    5.0252   52.7121 H       1  ZINC001356153960    0.1000
     44 H44         0.2835    5.5618   50.9797 H       1  ZINC001356153960    0.0900
@<TRIPOS>BOND
     1     1     2    2
     2     2     3   am
     3     2    11    1
     4     3     4    1
     5     3    26    1
     6     4     5    1
     7     4    27    1
     8     4    28    1
     9     5     6    1
    10     5    10    1
    11     5     7    1
    12     7     8    2
    13     7    29    1
    14     8     9    1
    15     8    30    1
    16     9    10    1
    17     9    31    1
    18     9    32    1
    19    10    33    1
    20    10    34    1
    21    11    12    2
    22    11    13   am
    23    13    14    1
    24    13    23    1
    25    14    15    1
    26    14    35    1
    27    14    36    1
    28    15    21   ar
    29    15    16   ar
    30    16    17   ar
    31    16    37    1
    32    17    18   ar
    33    17    38    1
    34    18    19    1
    35    18    20   ar
    36    20    21   ar
    37    20    39    1
    38    21    22    1
    39    23    25    1
    40    23    24    1
    41    23    40    1
    42    24    25    1
    43    24    41    1
    44    24    42    1
    45    25    43    1
    46    25    44    1
@<TRIPOS>SUBSTRUCTURE
     1 ZINC001356153960        1 TEMP              0 ****  ****    0 ROOT


##########                                Name:    ZINC000989658617
##########                DOCK_Rotatable_Bonds:                   6
##########                         Heavy_Atoms:                  24
##########                    Molecular_Weight:             334.418
##########                DOCK_Rotatable_Bonds:                   6
##########                       Formal_Charge:          -0.0100001
##########                     HBond_Acceptors:                   7
##########                        HBond_Donors:                   2
##########                         Heavy_Atoms:                  24
##########                          Grid_Score:          -27.704824
##########                     Grid_vdw_energy:          -27.943010
##########                      Grid_es_energy:            0.238186
##########           Internal_energy_repulsive:           11.658704

@<TRIPOS>MOLECULE
ZINC000989658617
 50 52 1 0 0
SMALL
USER_CHARGES


@<TRIPOS>ATOM
      1 C1         -4.2974    2.8422   51.6297 C.3     1  ZINC000989658617    0.0300
      2 O2         -4.6468    2.4358   50.3049 O.3     1  ZINC000989658617   -0.3700
      3 C3         -6.0539    2.3197   50.0846 C.3     1  ZINC000989658617    0.0500
      4 C4         -6.6457    1.3790   51.1025 C.2     1  ZINC000989658617    0.5300
      5 O5         -6.4461    0.1861   51.0139 O.2     1  ZINC000989658617   -0.5100
      6 N6         -7.3967    1.8636   52.1113 N.am    1  ZINC000989658617   -0.6200
      7 C7         -7.7176    3.2845   52.3377 C.3     1  ZINC000989658617    0.1000
      8 C8         -8.0270    3.3847   53.8524 C.3     1  ZINC000989658617   -0.1500
      9 C9         -8.7625    2.0430   54.1095 C.3     1  ZINC000989658617    0.1400
     10 H10        -9.8160    2.1231   53.8414 H       1  ZINC000989658617    0.1100
     11 N11        -8.6154    1.6309   55.5076 N.am    1  ZINC000989658617   -0.7100
     12 C12        -9.3314    2.2453   56.4701 C.2     1  ZINC000989658617    0.6100
     13 O13       -10.0981    3.1424   56.1783 O.2     1  ZINC000989658617   -0.5200
     14 C14        -9.1844    1.8286   57.8796 C.2     1  ZINC000989658617   -0.0100
     15 N15        -8.5378    2.4788   58.8320 N.2     1  ZINC000989658617   -0.2600
     16 N16        -8.6118    1.8290   59.9421 N.pl3   1  ZINC000989658617   -0.3700
     17 C17        -9.3233    0.7030   59.7697 C.2     1  ZINC000989658617    0.0100
     18 C18        -9.7095    0.6672   58.4705 C.2     1  ZINC000989658617   -0.1400
     19 C19       -10.5262   -0.4336   57.8520 C.3     1  ZINC000989658617   -0.0400
     20 C20       -10.4869   -1.6477   58.7899 C.3     1  ZINC000989658617   -0.0900
     21 H21        -9.4902   -2.0886   58.7717 H       1  ZINC000989658617    0.0700
     22 C22       -11.5115   -2.6845   58.3252 C.3     1  ZINC000989658617   -0.1500
     23 C23       -10.8222   -1.2032   60.2162 C.3     1  ZINC000989658617   -0.1100
     24 C24        -9.6733   -0.3594   60.7797 C.3     1  ZINC000989658617   -0.0500
     25 C25        -8.0370    1.0620   53.1645 C.3     1  ZINC000989658617    0.1300
     26 H26        -7.2768    0.5093   53.7165 H       1  ZINC000989658617    0.0800
     27 C27        -9.0454    0.0884   52.5511 C.3     1  ZINC000989658617   -0.1600
     28 H28        -4.7373    3.8175   51.8384 H       1  ZINC000989658617    0.0500
     29 H29        -4.6759    2.1124   52.3454 H       1  ZINC000989658617    0.0400
     30 H30        -3.2127    2.9068   51.7158 H       1  ZINC000989658617    0.0900
     31 H31        -6.5191    3.3005   50.1825 H       1  ZINC000989658617    0.0800
     32 H32        -6.2338    1.9305   49.0825 H       1  ZINC000989658617    0.0800
     33 H33        -6.8635    3.9117   52.0827 H       1  ZINC000989658617    0.0800
     34 H34        -8.5903    3.5743   51.7525 H       1  ZINC000989658617    0.0800
     35 H35        -7.1080    3.4445   54.4356 H       1  ZINC000989658617    0.0800
     36 H36        -8.6775    4.2336   54.0630 H       1  ZINC000989658617    0.1000
     37 H37        -8.0027    0.9159   55.7406 H       1  ZINC000989658617    0.4100
     38 H38        -8.2124    2.1117   60.7796 H       1  ZINC000989658617    0.4500
     39 H39       -11.5563   -0.1002   57.7255 H       1  ZINC000989658617    0.0800
     40 H40       -10.1054   -0.7037   56.8835 H       1  ZINC000989658617    0.0800
     41 H41       -11.2727   -3.0017   57.3100 H       1  ZINC000989658617    0.0600
     42 H42       -11.4837   -3.5469   58.9913 H       1  ZINC000989658617    0.0600
     43 H43       -12.5083   -2.2437   58.3430 H       1  ZINC000989658617    0.0600
     44 H44       -11.7346   -0.6071   60.2054 H       1  ZINC000989658617    0.0700
     45 H45       -10.9706   -2.0814   60.8446 H       1  ZINC000989658617    0.0800
     46 H46        -8.8041   -0.9932   60.9552 H       1  ZINC000989658617    0.0800
     47 H47        -9.9840    0.1059   61.7151 H       1  ZINC000989658617    0.0800
     48 H48        -9.7919    0.6466   51.9860 H       1  ZINC000989658617    0.0600
     49 H49        -8.5262   -0.6009   51.8853 H       1  ZINC000989658617    0.0700
     50 H50        -9.5366   -0.4740   53.3452 H       1  ZINC000989658617    0.0700
@<TRIPOS>BOND
     1     1     2    1
     2     1    28    1
     3     1    29    1
     4     1    30    1
     5     2     3    1
     6     3     4    1
     7     3    31    1
     8     3    32    1
     9     4     5    2
    10     4     6   am
    11     6    25    1
    12     6     7    1
    13     7     8    1
    14     7    33    1
    15     7    34    1
    16     8     9    1
    17     8    35    1
    18     8    36    1
    19     9    10    1
    20     9    11    1
    21     9    25    1
    22    11    12   am
    23    11    37    1
    24    12    13    2
    25    12    14    1
    26    14    18    1
    27    14    15    2
    28    15    16    1
    29    16    17    1
    30    16    38    1
    31    17    24    1
    32    17    18    2
    33    18    19    1
    34    19    20    1
    35    19    39    1
    36    19    40    1
    37    20    21    1
    38    20    22    1
    39    20    23    1
    40    22    41    1
    41    22    42    1
    42    22    43    1
    43    23    24    1
    44    23    44    1
    45    23    45    1
    46    24    46    1
    47    24    47    1
    48    25    26    1
    49    25    27    1
    50    27    48    1
    51    27    49    1
    52    27    50    1
@<TRIPOS>SUBSTRUCTURE
     1 ZINC000989658617        1 TEMP              0 ****  ****    0 ROOT


##########                                Name:    ZINC000534890536
##########                DOCK_Rotatable_Bonds:                   6
##########                         Heavy_Atoms:                  30
##########                    Molecular_Weight:             411.476
##########                DOCK_Rotatable_Bonds:                   6
##########                       Formal_Charge:          0.00999957
##########                     HBond_Acceptors:                   7
##########                        HBond_Donors:                   1
##########                         Heavy_Atoms:                  30
##########                          Grid_Score:          -27.669722
##########                     Grid_vdw_energy:          -28.255442
##########                      Grid_es_energy:            0.585720
##########           Internal_energy_repulsive:           13.959006

@<TRIPOS>MOLECULE
ZINC000534890536
 56 59 1 0 0
SMALL
USER_CHARGES


@<TRIPOS>ATOM
      1 C1         -9.0624    1.3830   64.9120 C.3     1  ZINC000534890536    0.0300
      2 O2         -8.3998    0.5383   63.9688 O.3     1  ZINC000534890536   -0.3200
      3 C3         -9.1019    0.1798   62.8618 C.ar    1  ZINC000534890536    0.1300
      4 C4        -10.3994    0.6372   62.6836 C.ar    1  ZINC000534890536   -0.2100
      5 C5        -11.1108    0.2717   61.5573 C.ar    1  ZINC000534890536   -0.0700
      6 C6        -10.5309   -0.5496   60.6081 C.ar    1  ZINC000534890536   -0.1100
      7 C7        -11.3094   -0.9472   59.3807 C.3     1  ZINC000534890536   -0.0600
      8 H8        -12.2896   -0.4705   59.3707 H       1  ZINC000534890536    0.0900
      9 C9        -11.4404   -2.4901   59.2806 C.3     1  ZINC000534890536   -0.1200
     10 C10       -11.6027   -2.7255   57.7641 C.3     1  ZINC000534890536    0.1000
     11 N11       -11.0412   -1.5529   57.0777 N.am    1  ZINC000534890536   -0.6400
     12 C12       -11.0107   -1.3636   55.7436 C.2     1  ZINC000534890536    0.7300
     13 O13       -11.4758   -2.2051   54.9994 O.2     1  ZINC000534890536   -0.5700
     14 N14       -10.4648   -0.2414   55.2345 N.am    1  ZINC000534890536   -0.7300
     15 C15       -10.4302   -0.0364   53.7843 C.3     1  ZINC000534890536    0.1600
     16 H16       -10.2506   -0.9901   53.2880 H       1  ZINC000534890536    0.1200
     17 C17       -11.7723    0.5339   53.3193 C.3     1  ZINC000534890536   -0.1300
     18 C18       -11.6247    0.9960   51.8645 C.3     1  ZINC000534890536   -0.1300
     19 C19       -10.6785    2.1965   51.8257 C.3     1  ZINC000534890536    0.1100
     20 N20        -9.4472    1.8991   52.5467 N.am    1  ZINC000534890536   -0.5600
     21 C21        -8.3241    2.6933   52.2832 C.ar    1  ZINC000534890536    0.1000
     22 C22        -7.2990    2.2054   51.4852 C.ar    1  ZINC000534890536   -0.0800
     23 C23        -6.1923    2.9913   51.2264 C.ar    1  ZINC000534890536   -0.1200
     24 C24        -6.1042    4.2628   51.7617 C.ar    1  ZINC000534890536   -0.0800
     25 C25        -7.1232    4.7537   52.5577 C.ar    1  ZINC000534890536   -0.1500
     26 C26        -8.2361    3.9750   52.8161 C.ar    1  ZINC000534890536    0.1100
     27 F27        -9.2317    4.4544   53.5934 F       1  ZINC000534890536   -0.1300
     28 C28        -9.3243    0.9202   53.4420 C.2     1  ZINC000534890536    0.5000
     29 O29        -8.2605    0.7923   54.0106 O.2     1  ZINC000534890536   -0.5100
     30 C30       -10.5184   -0.6170   58.0903 C.3     1  ZINC000534890536    0.1300
     31 C31        -9.2376   -1.0065   60.7832 C.ar    1  ZINC000534890536   -0.0700
     32 C32        -8.5202   -0.6397   61.9053 C.ar    1  ZINC000534890536   -0.1500
     33 H33        -9.3432    2.3182   64.4275 H       1  ZINC000534890536    0.0600
     34 H34        -9.9573    0.8825   65.2820 H       1  ZINC000534890536    0.0600
     35 H35        -8.3922    1.5925   65.7456 H       1  ZINC000534890536    0.1000
     36 H36       -10.8531    1.2782   63.4249 H       1  ZINC000534890536    0.1300
     37 H37       -12.1210    0.6275   61.4180 H       1  ZINC000534890536    0.1300
     38 H38       -10.5396   -2.9784   59.6524 H       1  ZINC000534890536    0.0800
     39 H39       -12.3204   -2.8382   59.8213 H       1  ZINC000534890536    0.0900
     40 H40       -11.0601   -3.6234   57.4682 H       1  ZINC000534890536    0.0700
     41 H41       -12.6590   -2.8296   57.5161 H       1  ZINC000534890536    0.0700
     42 H42       -10.0949    0.4306   55.8282 H       1  ZINC000534890536    0.4000
     43 H43       -12.5406   -0.2366   53.3834 H       1  ZINC000534890536    0.0900
     44 H44       -12.0485    1.3812   53.9471 H       1  ZINC000534890536    0.0800
     45 H45       -11.2122    0.1856   51.2636 H       1  ZINC000534890536    0.0800
     46 H46       -12.5995    1.2857   51.4721 H       1  ZINC000534890536    0.1000
     47 H47       -10.4404    2.4344   50.7889 H       1  ZINC000534890536    0.0800
     48 H48       -11.1670    3.0553   52.2860 H       1  ZINC000534890536    0.0700
     49 H49        -7.3660    1.2120   51.0667 H       1  ZINC000534890536    0.1300
     50 H50        -5.3946    2.6115   50.6053 H       1  ZINC000534890536    0.1300
     51 H51        -5.2375    4.8742   51.5581 H       1  ZINC000534890536    0.1400
     52 H52        -7.0513    5.7475   52.9744 H       1  ZINC000534890536    0.1400
     53 H53       -10.7014    0.4132   57.7851 H       1  ZINC000534890536    0.0800
     54 H54        -9.4525   -0.7837   58.2465 H       1  ZINC000534890536    0.0700
     55 H55        -8.7868   -1.6477   60.0403 H       1  ZINC000534890536    0.1300
     56 H56        -7.5101   -0.9967   62.0416 H       1  ZINC000534890536    0.1300
@<TRIPOS>BOND
     1     1     2    1
     2     1    33    1
     3     1    34    1
     4     1    35    1
     5     2     3    1
     6     3    32   ar
     7     3     4   ar
     8     4     5   ar
     9     4    36    1
    10     5     6   ar
    11     5    37    1
    12     6     7    1
    13     6    31   ar
    14     7     8    1
    15     7    30    1
    16     7     9    1
    17     9    10    1
    18     9    38    1
    19     9    39    1
    20    10    11    1
    21    10    40    1
    22    10    41    1
    23    11    12   am
    24    11    30    1
    25    12    13    2
    26    12    14   am
    27    14    15    1
    28    14    42    1
    29    15    16    1
    30    15    28    1
    31    15    17    1
    32    17    18    1
    33    17    43    1
    34    17    44    1
    35    18    19    1
    36    18    45    1
    37    18    46    1
    38    19    20    1
    39    19    47    1
    40    19    48    1
    41    20    21    1
    42    20    28   am
    43    21    26   ar
    44    21    22   ar
    45    22    23   ar
    46    22    49    1
    47    23    24   ar
    48    23    50    1
    49    24    25   ar
    50    24    51    1
    51    25    26   ar
    52    25    52    1
    53    26    27    1
    54    28    29    2
    55    30    53    1
    56    30    54    1
    57    31    32   ar
    58    31    55    1
    59    32    56    1
@<TRIPOS>SUBSTRUCTURE
     1 ZINC000534890536        1 TEMP              0 ****  ****    0 ROOT


##########                                Name:    ZINC000675319328
##########                DOCK_Rotatable_Bonds:                   7
##########                         Heavy_Atoms:                  26
##########                    Molecular_Weight:             363.475
##########                DOCK_Rotatable_Bonds:                   7
##########                       Formal_Charge:          -0.0200007
##########                     HBond_Acceptors:                   6
##########                        HBond_Donors:                   1
##########                         Heavy_Atoms:                  26
##########                          Grid_Score:          -27.663204
##########                     Grid_vdw_energy:          -27.345915
##########                      Grid_es_energy:           -0.317288
##########           Internal_energy_repulsive:           19.552120

@<TRIPOS>MOLECULE
ZINC000675319328
 56 58 1 0 0
SMALL
USER_CHARGES


@<TRIPOS>ATOM
      1 C1          1.3471    5.8448   44.8127 C.3     1  ZINC000675319328   -0.1600
      2 C2          1.8682    4.4072   44.8612 C.3     1  ZINC000675319328    0.1600
      3 H3          2.9073    4.4082   45.1905 H       1  ZINC000675319328    0.0900
      4 C4          1.7758    3.7838   43.4670 C.3     1  ZINC000675319328   -0.1200
      5 C5          2.7211    4.5200   42.5155 C.3     1  ZINC000675319328   -0.1200
      6 H6          2.4941    5.5859   42.4936 H       1  ZINC000675319328    0.0800
      7 C7          4.2030    4.2786   42.9124 C.3     1  ZINC000675319328   -0.1500
      8 C8          4.9047    4.4381   41.5402 C.3     1  ZINC000675319328    0.0500
      9 O9          3.9948    3.8695   40.5852 O.3     1  ZINC000675319328   -0.3900
     10 C10         2.6539    3.9146   41.0970 C.3     1  ZINC000675319328    0.0500
     11 N11         1.0592    3.6258   45.8000 N.am    1  ZINC000675319328   -0.7400
     12 C12         1.6082    2.5865   46.4596 C.2     1  ZINC000675319328    0.7000
     13 O13         2.7748    2.2976   46.2756 O.2     1  ZINC000675319328   -0.5900
     14 N14         0.8640    1.8677   47.3233 N.am    1  ZINC000675319328   -0.6200
     15 C15         1.4932    0.7353   48.0308 C.3     1  ZINC000675319328    0.1300
     16 C16         1.0641    0.6908   49.5070 C.3     1  ZINC000675319328   -0.1300
     17 C17         1.0155    2.0963   50.0646 C.3     1  ZINC000675319328    0.0700
     18 N18        -0.3388    2.6251   49.9113 N.3     1  ZINC000675319328   -0.5500
     19 C19        -0.6985    3.4879   51.0445 C.3     1  ZINC000675319328    0.1000
     20 C20        -2.1804    3.3897   51.3001 C.ar    1  ZINC000675319328   -0.0900
     21 C21        -2.8511    4.4454   51.8892 C.ar    1  ZINC000675319328   -0.0900
     22 C22        -4.2101    4.3565   52.1241 C.ar    1  ZINC000675319328   -0.1500
     23 C23        -4.9000    3.2099   51.7687 C.ar    1  ZINC000675319328    0.1000
     24 F24        -6.2286    3.1222   51.9974 F       1  ZINC000675319328   -0.1400
     25 C25        -4.2273    2.1534   51.1783 C.ar    1  ZINC000675319328   -0.1500
     26 C26        -2.8692    2.2465   50.9400 C.ar    1  ZINC000675319328   -0.0700
     27 C27        -0.6300    3.2577   48.6801 C.3     1  ZINC000675319328    0.0500
     28 C28        -0.5215    2.2396   47.5263 C.3     1  ZINC000675319328    0.1100
     29 H29         1.4130    6.2889   45.8060 H       1  ZINC000675319328    0.0600
     30 H30         1.9489    6.4261   44.1142 H       1  ZINC000675319328    0.0700
     31 H31         0.3080    5.8437   44.4834 H       1  ZINC000675319328    0.0500
     32 H32         2.0592    2.7326   43.5195 H       1  ZINC000675319328    0.0700
     33 H33         0.7531    3.8665   43.0992 H       1  ZINC000675319328    0.0900
     34 H34         4.5481    5.0323   43.6200 H       1  ZINC000675319328    0.0800
     35 H35         4.3443    3.2740   43.3113 H       1  ZINC000675319328    0.0800
     36 H36         5.0725    5.4926   41.3214 H       1  ZINC000675319328    0.0600
     37 H37         5.8495    3.8944   41.5328 H       1  ZINC000675319328    0.0900
     38 H38         2.2432    2.9061   41.1471 H       1  ZINC000675319328    0.0700
     39 H39         2.0328    4.5365   40.4522 H       1  ZINC000675319328    0.0700
     40 H40         0.1286    3.8564   45.9469 H       1  ZINC000675319328    0.3900
     41 H41         1.2001   -0.1957   47.5458 H       1  ZINC000675319328    0.0600
     42 H42         2.5770    0.8387   47.9771 H       1  ZINC000675319328    0.0900
     43 H43         0.0769    0.2354   49.5844 H       1  ZINC000675319328    0.0800
     44 H44         1.7816    0.0995   50.0758 H       1  ZINC000675319328    0.0800
     45 H45         1.2824    2.0786   51.1212 H       1  ZINC000675319328    0.0700
     46 H46         1.7173    2.7285   49.5208 H       1  ZINC000675319328    0.0400
     47 H47        -0.1545    3.1666   51.9328 H       1  ZINC000675319328    0.0900
     48 H48        -0.4375    4.5204   50.8123 H       1  ZINC000675319328    0.0400
     49 H49        -2.3127    5.3397   52.1662 H       1  ZINC000675319328    0.1300
     50 H50        -4.7336    5.1811   52.5849 H       1  ZINC000675319328    0.1400
     51 H51        -4.7643    1.2584   50.9010 H       1  ZINC000675319328    0.1400
     52 H52        -2.3443    1.4227   50.4793 H       1  ZINC000675319328    0.1300
     53 H53        -1.6412    3.6636   48.7122 H       1  ZINC000675319328    0.0900
     54 H54         0.0787    4.0689   48.5136 H       1  ZINC000675319328    0.0300
     55 H55        -0.9130    2.6849   46.6117 H       1  ZINC000675319328    0.0700
     56 H56        -1.1005    1.3496   47.7723 H       1  ZINC000675319328    0.0900
@<TRIPOS>BOND
     1     1     2    1
     2     1    29    1
     3     1    30    1
     4     1    31    1
     5     2     3    1
     6     2     4    1
     7     2    11    1
     8     4     5    1
     9     4    32    1
    10     4    33    1
    11     5     6    1
    12     5    10    1
    13     5     7    1
    14     7     8    1
    15     7    34    1
    16     7    35    1
    17     8     9    1
    18     8    36    1
    19     8    37    1
    20     9    10    1
    21    10    38    1
    22    10    39    1
    23    11    12   am
    24    11    40    1
    25    12    13    2
    26    12    14   am
    27    14    28    1
    28    14    15    1
    29    15    16    1
    30    15    41    1
    31    15    42    1
    32    16    17    1
    33    16    43    1
    34    16    44    1
    35    17    18    1
    36    17    45    1
    37    17    46    1
    38    18    19    1
    39    18    27    1
    40    19    20    1
    41    19    47    1
    42    19    48    1
    43    20    26   ar
    44    20    21   ar
    45    21    22   ar
    46    21    49    1
    47    22    23   ar
    48    22    50    1
    49    23    24    1
    50    23    25   ar
    51    25    26   ar
    52    25    51    1
    53    26    52    1
    54    27    28    1
    55    27    53    1
    56    27    54    1
    57    28    55    1
    58    28    56    1
@<TRIPOS>SUBSTRUCTURE
     1 ZINC000675319328        1 TEMP              0 ****  ****    0 ROOT


##########                                Name:    ZINC000541252362
##########                DOCK_Rotatable_Bonds:                   5
##########                         Heavy_Atoms:                  27
##########                    Molecular_Weight:             401.254
##########                DOCK_Rotatable_Bonds:                   5
##########                       Formal_Charge:          -0.0199999
##########                     HBond_Acceptors:                   9
##########                        HBond_Donors:                   1
##########                         Heavy_Atoms:                  27
##########                          Grid_Score:          -27.645451
##########                     Grid_vdw_energy:          -27.403194
##########                      Grid_es_energy:           -0.242255
##########           Internal_energy_repulsive:            5.102985

@<TRIPOS>MOLECULE
ZINC000541252362
 41 44 1 0 0
SMALL
USER_CHARGES


@<TRIPOS>ATOM
      1 C1         -1.7463    3.5976   57.5861 C.3     1  ZINC000541252362    0.1000
      2 N2         -2.8735    3.3255   56.6907 N.pl3   1  ZINC000541252362   -0.3800
      3 C3         -2.8621    3.3696   55.3462 C.2     1  ZINC000541252362    0.2600
      4 N4         -4.0575    3.0644   54.9157 N.2     1  ZINC000541252362   -0.5300
      5 C5         -4.8648    2.8175   55.9560 C.2     1  ZINC000541252362    0.2700
      6 C6         -6.2969    2.4380   55.8685 C.ar    1  ZINC000541252362    0.0000
      7 C7         -6.9064    2.2928   54.6238 C.ar    1  ZINC000541252362   -0.1000
      8 C8         -8.2388    1.9393   54.5440 C.ar    1  ZINC000541252362   -0.1000
      9 C9         -8.9722    1.7286   55.6960 C.ar    1  ZINC000541252362   -0.1300
     10 C10        -8.3725    1.8712   56.9415 C.ar    1  ZINC000541252362    0.1400
     11 N11        -9.1183    1.6571   58.1061 N.am    1  ZINC000541252362   -0.6800
     12 C12        -8.7808    0.6611   58.9490 C.2     1  ZINC000541252362    0.5100
     13 O13        -7.8307   -0.0499   58.6981 O.2     1  ZINC000541252362   -0.4900
     14 C14        -9.5839    0.4306   60.2031 C.3     1  ZINC000541252362   -0.0600
     15 C15       -10.7962   -0.4032   59.8772 C.2     1  ZINC000541252362    0.0700
     16 C16       -10.9697   -1.1379   58.7565 C.2     1  ZINC000541252362   -0.0700
     17 N17       -12.1956   -1.7376   58.8521 N.pl3   1  ZINC000541252362   -0.3500
     18 C18       -12.8799   -2.5784   58.0212 C.2     1  ZINC000541252362    0.0700
     19 C19       -14.1039   -3.0358   58.3616 C.2     1  ZINC000541252362   -0.0500
     20 Cl20      -14.9562   -4.1036   57.2907 Cl      1  ZINC000541252362   -0.0200
     21 C21       -14.6907   -2.6514   59.5795 C.2     1  ZINC000541252362   -0.0900
     22 C22       -14.0191   -1.8143   60.4166 C.2     1  ZINC000541252362    0.0200
     23 Cl23      -14.7276   -1.3291   61.9254 Cl      1  ZINC000541252362   -0.0100
     24 C24       -12.7417   -1.3452   60.0460 C.2     1  ZINC000541252362    0.2200
     25 N25       -11.8753   -0.5440   60.6503 N.2     1  ZINC000541252362   -0.4300
     26 C26        -7.0336    2.2204   57.0299 C.ar    1  ZINC000541252362   -0.0800
     27 N27        -4.1766    2.9615   57.0671 N.2     1  ZINC000541252362   -0.3100
     28 H28        -1.2001    2.6732   57.7737 H       1  ZINC000541252362    0.0800
     29 H29        -1.0808    4.3251   57.1216 H       1  ZINC000541252362    0.0900
     30 H30        -2.1196    3.9968   58.5292 H       1  ZINC000541252362    0.0900
     31 H31        -2.0109    3.6154   54.7286 H       1  ZINC000541252362    0.2200
     32 H32        -6.3365    2.4574   53.7213 H       1  ZINC000541252362    0.1300
     33 H33        -8.7093    1.8273   53.5783 H       1  ZINC000541252362    0.1300
     34 H34       -10.0141    1.4529   55.6283 H       1  ZINC000541252362    0.1300
     35 H35        -9.8782    2.2257   58.3066 H       1  ZINC000541252362    0.4100
     36 H36        -8.9700   -0.0920   60.9367 H       1  ZINC000541252362    0.1200
     37 H37        -9.9018    1.3895   60.6124 H       1  ZINC000541252362    0.1200
     38 H38       -10.2714   -1.2332   57.9380 H       1  ZINC000541252362    0.1900
     39 H39       -12.4380   -2.8799   57.0830 H       1  ZINC000541252362    0.1800
     40 H40       -15.6700   -3.0181   59.8497 H       1  ZINC000541252362    0.1600
     41 H41        -6.5655    2.3314   57.9968 H       1  ZINC000541252362    0.1500
@<TRIPOS>BOND
     1     1     2    1
     2     1    28    1
     3     1    29    1
     4     1    30    1
     5     2    27    1
     6     2     3    1
     7     3     4    2
     8     3    31    1
     9     4     5    1
    10     5     6    1
    11     5    27    2
    12     6    26   ar
    13     6     7   ar
    14     7     8   ar
    15     7    32    1
    16     8     9   ar
    17     8    33    1
    18     9    10   ar
    19     9    34    1
    20    10    11    1
    21    10    26   ar
    22    11    12   am
    23    11    35    1
    24    12    13    2
    25    12    14    1
    26    14    15    1
    27    14    36    1
    28    14    37    1
    29    15    25    1
    30    15    16    2
    31    16    17    1
    32    16    38    1
    33    17    24    1
    34    17    18    1
    35    18    19    2
    36    18    39    1
    37    19    20    1
    38    19    21    1
    39    21    22    2
    40    21    40    1
    41    22    23    1
    42    22    24    1
    43    24    25    2
    44    26    41    1
@<TRIPOS>SUBSTRUCTURE
     1 ZINC000541252362        1 TEMP              0 ****  ****    0 ROOT


##########                                Name:    ZINC000129637895
##########                DOCK_Rotatable_Bonds:                   7
##########                         Heavy_Atoms:                  26
##########                    Molecular_Weight:             374.464
##########                DOCK_Rotatable_Bonds:                   7
##########                       Formal_Charge:        -5.51343e-07
##########                     HBond_Acceptors:                   8
##########                        HBond_Donors:                   1
##########                         Heavy_Atoms:                  26
##########                          Grid_Score:          -27.639528
##########                     Grid_vdw_energy:          -26.689135
##########                      Grid_es_energy:           -0.950394
##########           Internal_energy_repulsive:           12.133003

@<TRIPOS>MOLECULE
ZINC000129637895
 48 50 1 0 0
SMALL
USER_CHARGES


@<TRIPOS>ATOM
      1 C1         -1.8303    2.1310   63.6597 C.3     1  ZINC000129637895   -0.1500
      2 C2         -0.3333    2.0420   63.3563 C.3     1  ZINC000129637895   -0.0500
      3 C3         -0.0809    0.9024   62.4031 C.2     1  ZINC000129637895    0.0300
      4 C4         -0.2890    0.9999   61.0777 C.2     1  ZINC000129637895   -0.0200
      5 N5         -0.7529    2.1266   60.4001 N.am    1  ZINC000129637895   -0.5900
      6 C6         -0.0094    2.6770   59.4199 C.2     1  ZINC000129637895    0.5000
      7 O7          1.0636    2.1908   59.1260 O.2     1  ZINC000129637895   -0.4800
      8 C8         -0.5052    3.8843   58.6957 C.2     1  ZINC000129637895    0.5200
      9 O9         -0.5194    4.9627   59.2524 O.2     1  ZINC000129637895   -0.5100
     10 N10        -0.9371    3.7769   57.4235 N.am    1  ZINC000129637895   -0.5800
     11 C11        -0.9342    2.4786   56.7324 C.3     1  ZINC000129637895    0.0800
     12 C12        -2.3240    2.2439   56.1313 C.3     1  ZINC000129637895    0.0400
     13 N13        -2.6920    3.3930   55.2932 N.3     1  ZINC000129637895   -0.4900
     14 C14        -3.8783    3.1464   54.5985 C.ar    1  ZINC000129637895    0.1500
     15 C15        -3.8786    3.1216   53.2093 C.ar    1  ZINC000129637895   -0.2100
     16 C16        -5.0521    2.8772   52.5224 C.ar    1  ZINC000129637895   -0.0500
     17 C17        -6.2278    2.6572   53.2142 C.ar    1  ZINC000129637895   -0.2300
     18 C18        -6.2335    2.6807   54.6021 C.ar    1  ZINC000129637895    0.1500
     19 O19        -7.3907    2.4636   55.2810 O.3     1  ZINC000129637895   -0.3200
     20 C20        -7.8577    3.5205   56.1216 C.3     1  ZINC000129637895    0.0300
     21 C21        -5.0576    2.9199   55.2951 C.ar    1  ZINC000129637895   -0.1700
     22 C22        -2.7946    4.6227   56.0901 C.3     1  ZINC000129637895    0.0400
     23 C23        -1.4297    4.9537   56.6916 C.3     1  ZINC000129637895    0.1100
     24 S24         0.1300   -0.5492   60.3500 S.3     1  ZINC000129637895    0.2400
     25 C25         0.5409   -1.1718   61.8881 C.2     1  ZINC000129637895   -0.0300
     26 N26         0.3676   -0.2727   62.7964 N.2     1  ZINC000129637895   -0.4500
     27 H27        -2.3791    2.3034   62.7338 H       1  ZINC000129637895    0.0600
     28 H28        -2.1655    1.1978   64.1123 H       1  ZINC000129637895    0.0500
     29 H29        -2.0129    2.9553   64.3492 H       1  ZINC000129637895    0.0700
     30 H30         0.0018    2.9753   62.9038 H       1  ZINC000129637895    0.0900
     31 H31         0.2155    1.8696   64.2821 H       1  ZINC000129637895    0.0700
     32 H32        -1.6106    2.5143   60.6340 H       1  ZINC000129637895    0.4300
     33 H33        -0.1885    2.4887   55.9375 H       1  ZINC000129637895    0.0900
     34 H34        -0.7043    1.6855   57.4439 H       1  ZINC000129637895    0.1400
     35 H35        -2.3092    1.3398   55.5227 H       1  ZINC000129637895    0.1000
     36 H36        -3.0531    2.1308   56.9337 H       1  ZINC000129637895    0.0500
     37 H37        -2.9612    3.2940   52.6663 H       1  ZINC000129637895    0.1300
     38 H38        -5.0506    2.8583   51.4426 H       1  ZINC000129637895    0.1300
     39 H39        -7.1437    2.4670   52.6743 H       1  ZINC000129637895    0.1300
     40 H40        -7.1081    3.7378   56.8825 H       1  ZINC000129637895    0.0600
     41 H41        -8.0339    4.4123   55.5201 H       1  ZINC000129637895    0.0600
     42 H42        -8.7874    3.2177   56.6034 H       1  ZINC000129637895    0.1000
     43 H43        -5.0601    2.9382   56.3749 H       1  ZINC000129637895    0.1300
     44 H44        -3.1211    5.4436   55.4518 H       1  ZINC000129637895    0.1000
     45 H45        -3.5170    4.4765   56.8932 H       1  ZINC000129637895    0.0500
     46 H46        -1.5255    5.7979   57.3744 H       1  ZINC000129637895    0.1100
     47 H47        -0.7287    5.2016   55.8946 H       1  ZINC000129637895    0.0900
     48 H48         0.8989   -2.1740   62.0726 H       1  ZINC000129637895    0.2000
@<TRIPOS>BOND
     1     1     2    1
     2     1    27    1
     3     1    28    1
     4     1    29    1
     5     2     3    1
     6     2    30    1
     7     2    31    1
     8     3    26    1
     9     3     4    2
    10     4     5    1
    11     4    24    1
    12     5     6   am
    13     5    32    1
    14     6     7    2
    15     6     8    1
    16     8     9    2
    17     8    10   am
    18    10    23    1
    19    10    11    1
    20    11    12    1
    21    11    33    1
    22    11    34    1
    23    12    13    1
    24    12    35    1
    25    12    36    1
    26    13    14    1
    27    13    22    1
    28    14    21   ar
    29    14    15   ar
    30    15    16   ar
    31    15    37    1
    32    16    17   ar
    33    16    38    1
    34    17    18   ar
    35    17    39    1
    36    18    19    1
    37    18    21   ar
    38    19    20    1
    39    20    40    1
    40    20    41    1
    41    20    42    1
    42    21    43    1
    43    22    23    1
    44    22    44    1
    45    22    45    1
    46    23    46    1
    47    23    47    1
    48    24    25    1
    49    25    26    2
    50    25    48    1
@<TRIPOS>SUBSTRUCTURE
     1 ZINC000129637895        1 TEMP              0 ****  ****    0 ROOT


##########                                Name:    ZINC001371344729
##########                DOCK_Rotatable_Bonds:                   9
##########                         Heavy_Atoms:                  24
##########                    Molecular_Weight:             332.399
##########                DOCK_Rotatable_Bonds:                   9
##########                       Formal_Charge:          0.00999983
##########                     HBond_Acceptors:                   6
##########                        HBond_Donors:                   1
##########                         Heavy_Atoms:                  24
##########                          Grid_Score:          -27.630535
##########                     Grid_vdw_energy:          -26.414570
##########                      Grid_es_energy:           -1.215966
##########           Internal_energy_repulsive:           25.553364

@<TRIPOS>MOLECULE
ZINC001371344729
 48 49 1 0 0
SMALL
USER_CHARGES


@<TRIPOS>ATOM
      1 C1        -15.4952   -3.4685   55.9958 C.3     1  ZINC001371344729   -0.1800
      2 C2        -14.4108   -3.4204   57.0740 C.3     1  ZINC001371344729    0.1000
      3 N3        -13.8074   -2.0857   57.1006 N.am    1  ZINC001371344729   -0.6100
      4 C4        -14.4030   -1.0905   57.7874 C.2     1  ZINC001371344729    0.5100
      5 O5        -13.9028    0.0141   57.8107 O.2     1  ZINC001371344729   -0.5200
      6 C6        -15.6905   -1.3503   58.5263 C.3     1  ZINC001371344729   -0.0600
      7 C7        -15.4005   -1.5241   59.9949 C.2     1  ZINC001371344729   -0.0100
      8 C8        -15.3454   -0.5378   60.9080 C.2     1  ZINC001371344729   -0.1600
      9 C9        -15.5608    0.9323   60.6560 C.3     1  ZINC001371344729   -0.0800
     10 C10       -15.0407   -1.1443   62.1482 C.2     1  ZINC001371344729   -0.2100
     11 C11       -14.9372   -2.4660   61.9206 C.2     1  ZINC001371344729   -0.0300
     12 O12       -15.1524   -2.6898   60.6140 O.3     1  ZINC001371344729   -0.1700
     13 C13       -12.5568   -1.8326   56.3809 C.3     1  ZINC001371344729    0.1200
     14 H14       -12.3111   -0.7724   56.4412 H       1  ZINC001371344729    0.1100
     15 C15       -12.7221   -2.2354   54.9142 C.3     1  ZINC001371344729   -0.1600
     16 C16       -11.4304   -2.6537   57.0115 C.3     1  ZINC001371344729    0.1100
     17 N17       -10.8086   -1.8822   58.0906 N.am    1  ZINC001371344729   -0.7200
     18 C18        -9.8426   -2.4394   58.8474 C.2     1  ZINC001371344729    0.5900
     19 O19        -9.4862   -3.5823   58.6336 O.2     1  ZINC001371344729   -0.5300
     20 C20        -9.2184   -1.6638   59.9340 C.2     1  ZINC001371344729   -0.2300
     21 C21        -7.9155   -1.7081   60.3356 C.2     1  ZINC001371344729    0.0200
     22 O22        -7.7570   -0.8510   61.3489 O.3     1  ZINC001371344729   -0.1700
     23 C23        -8.9148   -0.2397   61.6446 C.2     1  ZINC001371344729   -0.0100
     24 C24        -9.1091    0.7838   62.7334 C.3     1  ZINC001371344729   -0.0800
     25 C25        -9.8714   -0.6853   60.8159 C.2     1  ZINC001371344729   -0.1600
     26 H26       -15.0514   -3.2510   55.0243 H       1  ZINC001371344729    0.0700
     27 H27       -15.9440   -4.4616   55.9760 H       1  ZINC001371344729    0.0700
     28 H28       -16.2626   -2.7272   56.2189 H       1  ZINC001371344729    0.0600
     29 H29       -13.6434   -4.1616   56.8509 H       1  ZINC001371344729    0.0900
     30 H30       -14.8546   -3.6380   58.0456 H       1  ZINC001371344729    0.0800
     31 H31       -16.1557   -2.2564   58.1382 H       1  ZINC001371344729    0.1100
     32 H32       -16.3662   -0.5065   58.3867 H       1  ZINC001371344729    0.1200
     33 H33       -16.6169    1.1714   60.7804 H       1  ZINC001371344729    0.0700
     34 H34       -14.9709    1.5127   61.3654 H       1  ZINC001371344729    0.0700
     35 H35       -15.2504    1.1761   59.6400 H       1  ZINC001371344729    0.0600
     36 H36       -14.9176   -0.6429   63.0968 H       1  ZINC001371344729    0.1500
     37 H37       -14.7134   -3.2189   62.6619 H       1  ZINC001371344729    0.2000
     38 H38       -13.5246   -1.6503   54.4649 H       1  ZINC001371344729    0.0700
     39 H39       -11.7915   -2.0471   54.3786 H       1  ZINC001371344729    0.0700
     40 H40       -12.9678   -3.2956   54.8541 H       1  ZINC001371344729    0.0700
     41 H41       -11.8385   -3.5801   57.4158 H       1  ZINC001371344729    0.0800
     42 H42       -10.6824   -2.8866   56.2537 H       1  ZINC001371344729    0.0800
     43 H43       -11.0921   -0.9702   58.2603 H       1  ZINC001371344729    0.4000
     44 H44        -7.1428   -2.3287   59.9063 H       1  ZINC001371344729    0.2100
     45 H45        -9.3824    0.2803   63.6608 H       1  ZINC001371344729    0.0800
     46 H46        -8.1823    1.3383   62.8805 H       1  ZINC001371344729    0.0800
     47 H47        -9.9033    1.4731   62.4466 H       1  ZINC001371344729    0.0900
     48 H48       -10.9090   -0.3861   60.7999 H       1  ZINC001371344729    0.1600
@<TRIPOS>BOND
     1     1     2    1
     2     1    26    1
     3     1    27    1
     4     1    28    1
     5     2     3    1
     6     2    29    1
     7     2    30    1
     8     3     4   am
     9     3    13    1
    10     4     5    2
    11     4     6    1
    12     6     7    1
    13     6    31    1
    14     6    32    1
    15     7    12    1
    16     7     8    2
    17     8     9    1
    18     8    10    1
    19     9    33    1
    20     9    34    1
    21     9    35    1
    22    10    11    2
    23    10    36    1
    24    11    12    1
    25    11    37    1
    26    13    14    1
    27    13    15    1
    28    13    16    1
    29    15    38    1
    30    15    39    1
    31    15    40    1
    32    16    17    1
    33    16    41    1
    34    16    42    1
    35    17    18   am
    36    17    43    1
    37    18    19    2
    38    18    20    1
    39    20    25    1
    40    20    21    2
    41    21    22    1
    42    21    44    1
    43    22    23    1
    44    23    24    1
    45    23    25    2
    46    24    45    1
    47    24    46    1
    48    24    47    1
    49    25    48    1
@<TRIPOS>SUBSTRUCTURE
     1 ZINC001371344729        1 TEMP              0 ****  ****    0 ROOT


##########                                Name:    ZINC000420486261
##########                DOCK_Rotatable_Bonds:                   7
##########                         Heavy_Atoms:                  26
##########                    Molecular_Weight:             353.378
##########                DOCK_Rotatable_Bonds:                   7
##########                       Formal_Charge:        -2.98023e-08
##########                     HBond_Acceptors:                   7
##########                        HBond_Donors:                   0
##########                         Heavy_Atoms:                  26
##########                          Grid_Score:          -27.618944
##########                     Grid_vdw_energy:          -26.805859
##########                      Grid_es_energy:           -0.813086
##########           Internal_energy_repulsive:            6.292815

@<TRIPOS>MOLECULE
ZINC000420486261
 45 47 1 0 0
SMALL
USER_CHARGES


@<TRIPOS>ATOM
      1 C1        -10.3285    4.5982   62.5125 C.3     1  ZINC000420486261    0.0400
      2 O2         -9.5992    3.9389   61.4439 O.3     1  ZINC000420486261   -0.3500
      3 C3         -9.6976    2.5977   61.3735 C.2     1  ZINC000420486261    0.5100
      4 O4        -10.3596    1.9936   62.1929 O.2     1  ZINC000420486261   -0.4900
      5 C5         -8.9986    1.8597   60.2971 C.ar    1  ZINC000420486261   -0.0700
      6 C6         -8.5999    0.5313   60.4791 C.ar    1  ZINC000420486261   -0.0900
      7 C7         -7.9492   -0.1257   59.4494 C.ar    1  ZINC000420486261    0.1100
      8 N8         -7.7016    0.4794   58.3079 N.ar    1  ZINC000420486261   -0.4200
      9 C9         -8.0603    1.7382   58.0880 C.ar    1  ZINC000420486261    0.1900
     10 C10        -7.7567    2.3692   56.7842 C.2     1  ZINC000420486261    0.2200
     11 N11        -7.0164    1.8602   55.8188 N.2     1  ZINC000420486261   -0.4300
     12 C12        -7.0234    2.7828   54.8337 C.2     1  ZINC000420486261    0.2200
     13 C13        -6.3303    2.6776   53.5265 C.ar    1  ZINC000420486261   -0.0600
     14 C14        -5.0412    3.1829   53.3755 C.ar    1  ZINC000420486261   -0.0300
     15 C15        -4.4006    3.0826   52.1571 C.ar    1  ZINC000420486261   -0.1600
     16 C16        -5.0342    2.4814   51.0838 C.ar    1  ZINC000420486261   -0.0600
     17 C17        -6.3130    1.9767   51.2225 C.ar    1  ZINC000420486261   -0.2200
     18 C18        -6.9661    2.0654   52.4417 C.ar    1  ZINC000420486261    0.1700
     19 O19        -8.2228    1.5696   52.5794 O.3     1  ZINC000420486261   -0.2900
     20 C20        -8.3672    0.1485   52.5427 C.3     1  ZINC000420486261    0.0600
     21 C21        -9.8221   -0.2240   52.8347 C.3     1  ZINC000420486261   -0.0900
     22 C22       -10.3091    0.5464   54.0635 C.3     1  ZINC000420486261   -0.1500
     23 C23       -10.6925    0.1361   51.6289 C.3     1  ZINC000420486261   -0.1500
     24 N24        -7.7551    3.7872   55.2448 N.2     1  ZINC000420486261   -0.3400
     25 O25        -8.1868    3.5660   56.3563 O.3     1  ZINC000420486261    0.1000
     26 C26        -8.7249    2.4698   59.0702 C.ar    1  ZINC000420486261   -0.0700
     27 H27       -10.1637    5.6742   62.4549 H       1  ZINC000420486261    0.1100
     28 H28       -11.3930    4.3876   62.4097 H       1  ZINC000420486261    0.0700
     29 H29        -9.9762    4.2277   63.4752 H       1  ZINC000420486261    0.0700
     30 H30        -8.7971    0.0245   61.4122 H       1  ZINC000420486261    0.1600
     31 H31        -7.6394   -1.1513   59.5852 H       1  ZINC000420486261    0.1800
     32 H32        -4.5436    3.6531   54.2108 H       1  ZINC000420486261    0.1400
     33 H33        -3.4011    3.4751   52.0409 H       1  ZINC000420486261    0.1300
     34 H34        -4.5270    2.4067   50.1333 H       1  ZINC000420486261    0.1300
     35 H35        -6.8024    1.5086   50.3812 H       1  ZINC000420486261    0.1400
     36 H36        -8.0890   -0.2196   51.5553 H       1  ZINC000420486261    0.0600
     37 H37        -7.7189   -0.3020   53.2943 H       1  ZINC000420486261    0.0600
     38 H38        -9.8916   -1.2949   53.0260 H       1  ZINC000420486261    0.0800
     39 H39       -10.2396    1.6172   53.8721 H       1  ZINC000420486261    0.0600
     40 H40       -11.3456    0.2810   54.2715 H       1  ZINC000420486261    0.0700
     41 H41        -9.6891    0.2898   54.9225 H       1  ZINC000420486261    0.0600
     42 H42       -10.6230    1.2069   51.4376 H       1  ZINC000420486261    0.0500
     43 H43       -10.3456   -0.4128   50.7535 H       1  ZINC000420486261    0.0600
     44 H44       -11.7291   -0.1293   51.8369 H       1  ZINC000420486261    0.0600
     45 H45        -9.0162    3.4939   58.8891 H       1  ZINC000420486261    0.1600
@<TRIPOS>BOND
     1     1     2    1
     2     1    27    1
     3     1    28    1
     4     1    29    1
     5     2     3    1
     6     3     4    2
     7     3     5    1
     8     5    26   ar
     9     5     6   ar
    10     6     7   ar
    11     6    30    1
    12     7     8   ar
    13     7    31    1
    14     8     9   ar
    15     9    10    1
    16     9    26   ar
    17    10    25    1
    18    10    11    2
    19    11    12    1
    20    12    13    1
    21    12    24    2
    22    13    18   ar
    23    13    14   ar
    24    14    15   ar
    25    14    32    1
    26    15    16   ar
    27    15    33    1
    28    16    17   ar
    29    16    34    1
    30    17    18   ar
    31    17    35    1
    32    18    19    1
    33    19    20    1
    34    20    21    1
    35    20    36    1
    36    20    37    1
    37    21    22    1
    38    21    23    1
    39    21    38    1
    40    22    39    1
    41    22    40    1
    42    22    41    1
    43    23    42    1
    44    23    43    1
    45    23    44    1
    46    24    25    1
    47    26    45    1
@<TRIPOS>SUBSTRUCTURE
     1 ZINC000420486261        1 TEMP              0 ****  ****    0 ROOT


##########                                Name:    ZINC000151820600
##########                DOCK_Rotatable_Bonds:                  10
##########                         Heavy_Atoms:                  25
##########                    Molecular_Weight:             388.915
##########                DOCK_Rotatable_Bonds:                  10
##########                       Formal_Charge:           0.0499998
##########                     HBond_Acceptors:                   8
##########                        HBond_Donors:                   2
##########                         Heavy_Atoms:                  25
##########                          Grid_Score:          -27.616234
##########                     Grid_vdw_energy:          -24.408451
##########                      Grid_es_energy:           -3.207782
##########           Internal_energy_repulsive:           18.292578

@<TRIPOS>MOLECULE
ZINC000151820600
 50 50 1 0 0
SMALL
USER_CHARGES


@<TRIPOS>ATOM
      1 C1          0.9139    2.4857   46.5475 C.3     1  ZINC000151820600   -0.4900
      2 S2         -0.4070    1.8293   47.6034 S.o     1  ZINC000151820600    1.2500
      3 O3         -1.6220    1.7823   46.8680 O.2     1  ZINC000151820600   -0.8500
      4 C4         -0.5406    3.0772   48.9130 C.3     1  ZINC000151820600   -0.4500
      5 C5         -1.6317    2.6633   49.9025 C.3     1  ZINC000151820600   -0.1100
      6 C6         -1.6719    3.6592   51.0634 C.3     1  ZINC000151820600    0.1200
      7 N7         -0.5363    3.4147   51.9561 N.am    1  ZINC000151820600   -0.7200
      8 C8          0.5802    4.1616   51.8462 C.2     1  ZINC000151820600    0.5200
      9 O9          0.6453    5.0352   51.0074 O.2     1  ZINC000151820600   -0.5200
     10 C10         1.7476    3.9113   52.7656 C.3     1  ZINC000151820600    0.1900
     11 H11         2.1327    4.8632   53.1313 H       1  ZINC000151820600    0.1300
     12 N12         1.3097    3.0937   53.8997 N.am    1  ZINC000151820600   -0.6900
     13 C13         0.9728    3.6821   55.0645 C.2     1  ZINC000151820600    0.6600
     14 O14         1.0337    4.8907   55.1745 O.2     1  ZINC000151820600   -0.5600
     15 O15         0.5687    2.9308   56.1061 O.3     1  ZINC000151820600   -0.3600
     16 C16        -0.7345    3.2329   56.6705 C.3     1  ZINC000151820600    0.1400
     17 C17        -1.2168    2.0446   57.5049 C.3     1  ZINC000151820600   -0.1800
     18 C18        -0.6296    4.4724   57.5613 C.3     1  ZINC000151820600   -0.1400
     19 C19        -1.7304    3.5001   55.5402 C.3     1  ZINC000151820600   -0.1800
     20 C20         2.8333    3.1861   52.0130 C.ar    1  ZINC000151820600   -0.1000
     21 C21         4.0860    3.7563   51.8870 C.ar    1  ZINC000151820600   -0.0900
     22 C22         5.0827    3.0912   51.1971 C.ar    1  ZINC000151820600   -0.1000
     23 C23         4.8268    1.8561   50.6327 C.ar    1  ZINC000151820600   -0.1000
     24 C24         3.5728    1.2847   50.7586 C.ar    1  ZINC000151820600   -0.0300
     25 Cl25        3.2506   -0.2672   50.0503 Cl      1  ZINC000151820600   -0.0600
     26 C26         2.5777    1.9480   51.4537 C.ar    1  ZINC000151820600   -0.0900
     27 H27         0.6216    3.4639   46.1657 H       1  ZINC000151820600    0.0800
     28 H28         1.8305    2.5819   47.1297 H       1  ZINC000151820600    0.1100
     29 H29         1.0835    1.8057   45.7126 H       1  ZINC000151820600    0.1100
     30 H30         0.4123    3.1586   49.4360 H       1  ZINC000151820600    0.1200
     31 H31        -0.7966    4.0406   48.4721 H       1  ZINC000151820600    0.0900
     32 H32        -2.5971    2.6558   49.3967 H       1  ZINC000151820600    0.0800
     33 H33        -1.4148    1.6664   50.2864 H       1  ZINC000151820600    0.0900
     34 H34        -1.6148    4.6751   50.6726 H       1  ZINC000151820600    0.0800
     35 H35        -2.6026    3.5346   51.6169 H       1  ZINC000151820600    0.0700
     36 H36        -0.5879    2.7152   52.6262 H       1  ZINC000151820600    0.4000
     37 H37         1.2622    2.1288   53.8122 H       1  ZINC000151820600    0.4200
     38 H38        -0.5073    1.8543   58.3102 H       1  ZINC000151820600    0.0600
     39 H39        -2.1951    2.2714   57.9286 H       1  ZINC000151820600    0.0700
     40 H40        -1.2916    1.1616   56.8702 H       1  ZINC000151820600    0.0900
     41 H41        -0.2860    5.3190   56.9670 H       1  ZINC000151820600    0.0700
     42 H42        -1.6078    4.6992   57.9851 H       1  ZINC000151820600    0.0800
     43 H43         0.0800    4.2821   58.3667 H       1  ZINC000151820600    0.0700
     44 H44        -1.8052    2.6171   54.9055 H       1  ZINC000151820600    0.0900
     45 H45        -2.7087    3.7269   55.9640 H       1  ZINC000151820600    0.0700
     46 H46        -1.3868    4.3467   54.9457 H       1  ZINC000151820600    0.0600
     47 H47         4.2863    4.7219   52.3273 H       1  ZINC000151820600    0.1300
     48 H48         6.0614    3.5373   51.0990 H       1  ZINC000151820600    0.1400
     49 H49         5.6052    1.3370   50.0932 H       1  ZINC000151820600    0.1400
     50 H50         1.5988    1.5025   51.5523 H       1  ZINC000151820600    0.1400
@<TRIPOS>BOND
     1     1     2    1
     2     1    27    1
     3     1    28    1
     4     1    29    1
     5     2     3    2
     6     2     4    1
     7     4     5    1
     8     4    30    1
     9     4    31    1
    10     5     6    1
    11     5    32    1
    12     5    33    1
    13     6     7    1
    14     6    34    1
    15     6    35    1
    16     7     8   am
    17     7    36    1
    18     8     9    2
    19     8    10    1
    20    10    11    1
    21    10    12    1
    22    10    20    1
    23    12    13   am
    24    12    37    1
    25    13    14    2
    26    13    15    1
    27    15    16    1
    28    16    17    1
    29    16    18    1
    30    16    19    1
    31    17    38    1
    32    17    39    1
    33    17    40    1
    34    18    41    1
    35    18    42    1
    36    18    43    1
    37    19    44    1
    38    19    45    1
    39    19    46    1
    40    20    26   ar
    41    20    21   ar
    42    21    22   ar
    43    21    47    1
    44    22    23   ar
    45    22    48    1
    46    23    24   ar
    47    23    49    1
    48    24    25    1
    49    24    26   ar
    50    26    50    1
@<TRIPOS>SUBSTRUCTURE
     1 ZINC000151820600        1 TEMP              0 ****  ****    0 ROOT


##########                                Name:    ZINC000952280524
##########                DOCK_Rotatable_Bonds:                   9
##########                         Heavy_Atoms:                  25
##########                    Molecular_Weight:             348.486
##########                DOCK_Rotatable_Bonds:                   9
##########                       Formal_Charge:          -0.0100004
##########                     HBond_Acceptors:                   5
##########                        HBond_Donors:                   1
##########                         Heavy_Atoms:                  25
##########                          Grid_Score:          -27.550104
##########                     Grid_vdw_energy:          -27.149235
##########                      Grid_es_energy:           -0.400869
##########           Internal_energy_repulsive:           17.173889

@<TRIPOS>MOLECULE
ZINC000952280524
 57 59 1 0 0
SMALL
USER_CHARGES


@<TRIPOS>ATOM
      1 C1          3.2230    1.7079   49.0762 C.3     1  ZINC000952280524   -0.1800
      2 C2          1.9044    1.3169   48.4059 C.3     1  ZINC000952280524    0.1400
      3 C3          2.1952    0.4887   47.1528 C.3     1  ZINC000952280524   -0.1900
      4 O4          1.1183    0.5444   49.3155 O.3     1  ZINC000952280524   -0.5500
      5 C5          1.1365    2.5812   48.0148 C.3     1  ZINC000952280524   -0.1200
      6 C6         -0.3309    2.3851   48.2966 C.2     1  ZINC000952280524    0.5300
      7 O7         -1.0256    1.7849   47.5042 O.2     1  ZINC000952280524   -0.5100
      8 N8         -0.8711    2.8767   49.4293 N.am    1  ZINC000952280524   -0.6300
      9 C9         -0.1479    3.6204   50.4711 C.3     1  ZINC000952280524    0.1000
     10 C10        -1.1638    3.9564   51.5831 C.3     1  ZINC000952280524   -0.1300
     11 C11        -2.2747    2.8941   51.3714 C.3     1  ZINC000952280524   -0.1000
     12 H12        -2.0072    1.9494   51.8448 H       1  ZINC000952280524    0.0900
     13 C13        -3.6231    3.4003   51.8877 C.3     1  ZINC000952280524   -0.0700
     14 C14        -4.7497    2.5652   51.2750 C.3     1  ZINC000952280524   -0.1300
     15 C15        -6.0996    3.0969   51.7669 C.3     1  ZINC000952280524    0.1100
     16 N16        -6.0932    3.1163   53.2361 N.am    1  ZINC000952280524   -0.6100
     17 C17        -7.0694    2.5039   53.9351 C.2     1  ZINC000952280524    0.5500
     18 O18        -7.9667    1.9282   53.3501 O.2     1  ZINC000952280524   -0.5500
     19 C19        -7.0493    2.5320   55.4058 C.2     1  ZINC000952280524   -0.2200
     20 C20        -7.7323    3.4653   56.0624 C.2     1  ZINC000952280524   -0.0300
     21 C21        -7.7132    3.4930   57.5690 C.3     1  ZINC000952280524   -0.1500
     22 C22        -9.0540    3.3660   58.2949 C.3     1  ZINC000952280524   -0.1700
     23 C23        -8.0657    2.1981   58.3039 C.3     1  ZINC000952280524   -0.1600
     24 C24        -5.0021    3.8154   53.9287 C.3     1  ZINC000952280524    0.1000
     25 C25        -3.6646    3.2756   53.4125 C.3     1  ZINC000952280524   -0.1300
     26 C26        -2.2865    2.7632   49.8258 C.3     1  ZINC000952280524    0.1100
     27 H27         3.8589    2.2214   48.3550 H       1  ZINC000952280524    0.0700
     28 H28         3.0203    2.3701   49.9179 H       1  ZINC000952280524    0.0600
     29 H29         3.7291    0.8110   49.4329 H       1  ZINC000952280524    0.0600
     30 H30         2.7422   -0.4120   47.4314 H       1  ZINC000952280524    0.0600
     31 H31         1.2558    0.2102   46.6752 H       1  ZINC000952280524    0.0800
     32 H32         2.7948    1.0779   46.4589 H       1  ZINC000952280524    0.0600
     33 H33         1.5695   -0.2395   49.6575 H       1  ZINC000952280524    0.3700
     34 H34         1.5081    3.4259   48.5948 H       1  ZINC000952280524    0.1000
     35 H35         1.2792    2.7789   46.9525 H       1  ZINC000952280524    0.1000
     36 H36         0.6551    3.0046   50.8762 H       1  ZINC000952280524    0.0700
     37 H37         0.2620    4.5399   50.0532 H       1  ZINC000952280524    0.0700
     38 H38        -0.7083    3.8472   52.5673 H       1  ZINC000952280524    0.0800
     39 H39        -1.5619    4.9624   51.4505 H       1  ZINC000952280524    0.0800
     40 H40        -3.7510    4.4453   51.6052 H       1  ZINC000952280524    0.0800
     41 H41        -4.7051    2.6358   50.1882 H       1  ZINC000952280524    0.0800
     42 H42        -4.6367    1.5241   51.5774 H       1  ZINC000952280524    0.0700
     43 H43        -6.2540    4.1075   51.3889 H       1  ZINC000952280524    0.0700
     44 H44        -6.8994    2.4461   51.4136 H       1  ZINC000952280524    0.0900
     45 H45        -6.4799    1.7948   55.9522 H       1  ZINC000952280524    0.1300
     46 H46        -8.3006    4.2034   55.5159 H       1  ZINC000952280524    0.1300
     47 H47        -6.9565    4.1364   58.0179 H       1  ZINC000952280524    0.1200
     48 H48        -9.1797    3.9260   59.2215 H       1  ZINC000952280524    0.1000
     49 H49        -9.9499    3.2624   57.6828 H       1  ZINC000952280524    0.1000
     50 H50        -8.3113    1.3262   57.6976 H       1  ZINC000952280524    0.1000
     51 H51        -7.5411    1.9898   59.2364 H       1  ZINC000952280524    0.1000
     52 H52        -5.0671    4.8845   53.7269 H       1  ZINC000952280524    0.0700
     53 H53        -5.0779    3.6386   55.0016 H       1  ZINC000952280524    0.0900
     54 H54        -3.5618    2.2278   53.6947 H       1  ZINC000952280524    0.0700
     55 H55        -2.8477    3.8518   53.8470 H       1  ZINC000952280524    0.0800
     56 H56        -2.8758    3.5655   49.3816 H       1  ZINC000952280524    0.0700
     57 H57        -2.6831    1.7919   49.5303 H       1  ZINC000952280524    0.0800
@<TRIPOS>BOND
     1     1     2    1
     2     1    27    1
     3     1    28    1
     4     1    29    1
     5     2     3    1
     6     2     4    1
     7     2     5    1
     8     3    30    1
     9     3    31    1
    10     3    32    1
    11     4    33    1
    12     5     6    1
    13     5    34    1
    14     5    35    1
    15     6     7    2
    16     6     8   am
    17     8    26    1
    18     8     9    1
    19     9    10    1
    20     9    36    1
    21     9    37    1
    22    10    11    1
    23    10    38    1
    24    10    39    1
    25    11    12    1
    26    11    13    1
    27    11    26    1
    28    13    25    1
    29    13    14    1
    30    13    40    1
    31    14    15    1
    32    14    41    1
    33    14    42    1
    34    15    16    1
    35    15    43    1
    36    15    44    1
    37    16    17   am
    38    16    24    1
    39    17    18    2
    40    17    19    1
    41    19    20    2
    42    19    45    1
    43    20    21    1
    44    20    46    1
    45    21    23    1
    46    21    22    1
    47    21    47    1
    48    22    23    1
    49    22    48    1
    50    22    49    1
    51    23    50    1
    52    23    51    1
    53    24    25    1
    54    24    52    1
    55    24    53    1
    56    25    54    1
    57    25    55    1
    58    26    56    1
    59    26    57    1
@<TRIPOS>SUBSTRUCTURE
     1 ZINC000952280524        1 TEMP              0 ****  ****    0 ROOT


##########                                Name:    ZINC001492779707
##########                DOCK_Rotatable_Bonds:                   8
##########                         Heavy_Atoms:                  27
##########                    Molecular_Weight:             374.483
##########                DOCK_Rotatable_Bonds:                   8
##########                       Formal_Charge:           0.0199998
##########                     HBond_Acceptors:                   7
##########                        HBond_Donors:                   0
##########                         Heavy_Atoms:                  27
##########                          Grid_Score:          -27.539522
##########                     Grid_vdw_energy:          -26.073544
##########                      Grid_es_energy:           -1.465978
##########           Internal_energy_repulsive:           10.074816

@<TRIPOS>MOLECULE
ZINC001492779707
 57 59 1 0 0
SMALL
USER_CHARGES


@<TRIPOS>ATOM
      1 C1        -11.0088   -0.6425   53.8151 C.3     1  ZINC001492779707   -0.0700
      2 C2        -11.5333   -1.2753   55.0782 C.2     1  ZINC001492779707    0.1800
      3 N3        -11.9888   -2.4899   55.2019 N.2     1  ZINC001492779707   -0.2900
      4 N4        -12.3541   -2.7020   56.4158 N.2     1  ZINC001492779707   -0.3100
      5 C5        -12.1494   -1.6254   57.1376 C.2     1  ZINC001492779707    0.3400
      6 N6        -12.4204   -1.4754   58.4884 N.3     1  ZINC001492779707   -0.4600
      7 C7        -13.8682   -1.4323   58.7332 C.3     1  ZINC001492779707    0.0300
      8 C8        -11.7851   -2.5416   59.2743 C.3     1  ZINC001492779707    0.1100
      9 C9        -10.5215   -2.0158   59.9050 C.ar    1  ZINC001492779707   -0.0400
     10 C10        -9.2917   -2.3446   59.3657 C.ar    1  ZINC001492779707   -0.1300
     11 C11        -8.1303   -1.8637   59.9421 C.ar    1  ZINC001492779707   -0.0800
     12 C12        -8.1964   -1.0534   61.0586 C.ar    1  ZINC001492779707   -0.2100
     13 C13        -9.4294   -0.7219   61.6018 C.ar    1  ZINC001492779707    0.1300
     14 O14        -9.4971    0.0757   62.7002 O.3     1  ZINC001492779707   -0.3100
     15 C15        -8.9270    1.3815   62.5898 C.3     1  ZINC001492779707    0.0800
     16 C16       -10.0453    2.4254   62.5623 C.3     1  ZINC001492779707   -0.1500
     17 C17        -8.0146    1.6429   63.7898 C.3     1  ZINC001492779707   -0.1800
     18 C18       -10.5931   -1.2009   61.0185 C.ar    1  ZINC001492779707   -0.1400
     19 N19       -11.6139   -0.6835   56.3082 N.pl3   1  ZINC001492779707   -0.4600
     20 C20       -11.2168    0.6821   56.6603 C.3     1  ZINC001492779707    0.1200
     21 C21        -9.6931    0.7560   56.7777 C.3     1  ZINC001492779707   -0.1200
     22 C22        -9.2695    2.2072   57.0126 C.3     1  ZINC001492779707    0.0600
     23 H23        -9.5963    2.8224   56.1743 H       1  ZINC001492779707    0.0800
     24 C24        -9.9072    2.7236   58.3057 C.3     1  ZINC001492779707    0.0300
     25 O25        -9.4185    4.0407   58.5767 O.3     1  ZINC001492779707   -0.3800
     26 C26        -7.9944    4.1098   58.6956 C.3     1  ZINC001492779707    0.0200
     27 C27        -7.3567    3.5936   57.4025 C.3     1  ZINC001492779707    0.0300
     28 O28        -7.8452    2.2766   57.1300 O.3     1  ZINC001492779707   -0.3800
     29 H29        -9.9374   -0.8263   53.7345 H       1  ZINC001492779707    0.0900
     30 H30       -11.5175   -1.0750   52.9536 H       1  ZINC001492779707    0.1000
     31 H31       -11.1919    0.4316   53.8437 H       1  ZINC001492779707    0.0800
     32 H32       -14.3071   -2.3996   58.4887 H       1  ZINC001492779707    0.0500
     33 H33       -14.0526   -1.2046   59.7831 H       1  ZINC001492779707    0.0900
     34 H34       -14.3193   -0.6606   58.1094 H       1  ZINC001492779707    0.0700
     35 H35       -12.4693   -2.8747   60.0546 H       1  ZINC001492779707    0.0700
     36 H36       -11.5435   -3.3799   58.6209 H       1  ZINC001492779707    0.0900
     37 H37        -9.2380   -2.9784   58.4929 H       1  ZINC001492779707    0.1200
     38 H38        -7.1709   -2.1224   59.5191 H       1  ZINC001492779707    0.1300
     39 H39        -7.2891   -0.6784   61.5087 H       1  ZINC001492779707    0.1300
     40 H40        -8.3458    1.4476   61.6701 H       1  ZINC001492779707    0.0700
     41 H41       -10.6267    2.3593   63.4820 H       1  ZINC001492779707    0.0700
     42 H42        -9.6106    3.4214   62.4781 H       1  ZINC001492779707    0.0800
     43 H43       -10.6954    2.2391   61.7075 H       1  ZINC001492779707    0.0700
     44 H44        -7.2180    0.8992   63.8093 H       1  ZINC001492779707    0.0600
     45 H45        -7.5799    2.6389   63.7054 H       1  ZINC001492779707    0.0700
     46 H46        -8.5959    1.5768   64.7094 H       1  ZINC001492779707    0.0700
     47 H47       -11.5540   -0.9443   61.4394 H       1  ZINC001492779707    0.1300
     48 H48       -11.5555    1.3701   55.8857 H       1  ZINC001492779707    0.1000
     49 H49       -11.6684    0.9573   57.6134 H       1  ZINC001492779707    0.1000
     50 H50        -9.3630    0.1410   57.6149 H       1  ZINC001492779707    0.0900
     51 H51        -9.2396    0.3896   55.8567 H       1  ZINC001492779707    0.0800
     52 H52       -10.9908    2.7535   58.1908 H       1  ZINC001492779707    0.1100
     53 H53        -9.6456    2.0610   59.1308 H       1  ZINC001492779707    0.0600
     54 H54        -7.6927    5.1438   58.8630 H       1  ZINC001492779707    0.1100
     55 H55        -7.6685    3.4940   59.5336 H       1  ZINC001492779707    0.0600
     56 H56        -7.6183    4.2560   56.5774 H       1  ZINC001492779707    0.0600
     57 H57        -6.2732    3.5636   57.5174 H       1  ZINC001492779707    0.1100
@<TRIPOS>BOND
     1     1     2    1
     2     1    29    1
     3     1    30    1
     4     1    31    1
     5     2    19    1
     6     2     3    2
     7     3     4    1
     8     4     5    2
     9     5     6    1
    10     5    19    1
    11     6     7    1
    12     6     8    1
    13     7    32    1
    14     7    33    1
    15     7    34    1
    16     8     9    1
    17     8    35    1
    18     8    36    1
    19     9    18   ar
    20     9    10   ar
    21    10    11   ar
    22    10    37    1
    23    11    12   ar
    24    11    38    1
    25    12    13   ar
    26    12    39    1
    27    13    14    1
    28    13    18   ar
    29    14    15    1
    30    15    16    1
    31    15    17    1
    32    15    40    1
    33    16    41    1
    34    16    42    1
    35    16    43    1
    36    17    44    1
    37    17    45    1
    38    17    46    1
    39    18    47    1
    40    19    20    1
    41    20    21    1
    42    20    48    1
    43    20    49    1
    44    21    22    1
    45    21    50    1
    46    21    51    1
    47    22    23    1
    48    22    28    1
    49    22    24    1
    50    24    25    1
    51    24    52    1
    52    24    53    1
    53    25    26    1
    54    26    27    1
    55    26    54    1
    56    26    55    1
    57    27    28    1
    58    27    56    1
    59    27    57    1
@<TRIPOS>SUBSTRUCTURE
     1 ZINC001492779707        1 TEMP              0 ****  ****    0 ROOT


##########                                Name:    ZINC001127302705
##########                DOCK_Rotatable_Bonds:                   9
##########                         Heavy_Atoms:                  28
##########                    Molecular_Weight:             398.892
##########                DOCK_Rotatable_Bonds:                   9
##########                       Formal_Charge:          -0.0200002
##########                     HBond_Acceptors:                   7
##########                        HBond_Donors:                   1
##########                         Heavy_Atoms:                  28
##########                          Grid_Score:          -27.532053
##########                     Grid_vdw_energy:          -27.019142
##########                      Grid_es_energy:           -0.512910
##########           Internal_energy_repulsive:           24.783138

@<TRIPOS>MOLECULE
ZINC001127302705
 51 53 1 0 0
SMALL
USER_CHARGES


@<TRIPOS>ATOM
      1 C1        -14.4428   -2.7497   61.0906 C.3     1  ZINC001127302705   -0.1500
      2 C2        -15.1504   -1.3934   61.0637 C.3     1  ZINC001127302705   -0.1400
      3 C3        -14.2476   -0.3604   60.3863 C.3     1  ZINC001127302705    0.1800
      4 C4        -15.0262    0.9404   60.1806 C.3     1  ZINC001127302705   -0.1600
      5 C5        -13.0284   -0.0908   61.2704 C.3     1  ZINC001127302705    0.0700
      6 O6        -11.9638   -0.9664   60.8935 O.3     1  ZINC001127302705   -0.2800
      7 C7        -10.7340   -0.6937   61.3981 C.ar    1  ZINC001127302705    0.3400
      8 N8        -10.6259   -0.0590   62.5529 N.ar    1  ZINC001127302705   -0.5300
      9 C9         -9.4497    0.2255   63.0795 C.ar    1  ZINC001127302705    0.1400
     10 C10        -8.2812   -0.1322   62.4375 C.ar    1  ZINC001127302705   -0.2000
     11 C11        -8.3507   -0.8001   61.2226 C.ar    1  ZINC001127302705   -0.0300
     12 C12        -9.5994   -1.0895   60.6987 C.ar    1  ZINC001127302705   -0.1100
     13 Cl13       -9.7463   -1.9228   59.1829 Cl      1  ZINC001127302705   -0.0400
     14 N14       -13.8051   -0.8752   59.0880 N.am    1  ZINC001127302705   -0.7100
     15 C15       -12.9368   -0.1642   58.3416 C.2     1  ZINC001127302705    0.6200
     16 O16       -12.5197    0.9037   58.7464 O.2     1  ZINC001127302705   -0.5200
     17 C17       -12.4920   -0.6823   57.0320 C.2     1  ZINC001127302705   -0.0200
     18 N18       -11.6532   -0.0968   56.2006 N.2     1  ZINC001127302705   -0.2500
     19 N19       -11.4890   -0.8244   55.1547 N.pl3   1  ZINC001127302705   -0.2800
     20 C20       -10.6239   -0.4820   54.0231 C.3     1  ZINC001127302705    0.1600
     21 C21       -11.4548    0.1212   52.9201 C.ar    1  ZINC001127302705   -0.1200
     22 C22       -12.3894    1.0966   53.2132 C.ar    1  ZINC001127302705   -0.1000
     23 C23       -13.1517    1.6499   52.2014 C.ar    1  ZINC001127302705   -0.1200
     24 C24       -12.9791    1.2280   50.8963 C.ar    1  ZINC001127302705   -0.1100
     25 C25       -12.0438    0.2532   50.6031 C.ar    1  ZINC001127302705   -0.1200
     26 C26       -11.2785   -0.2969   51.6144 C.ar    1  ZINC001127302705   -0.0800
     27 C27       -12.2285   -1.9504   55.2484 C.2     1  ZINC001127302705   -0.0200
     28 C28       -12.8804   -1.9045   56.4339 C.2     1  ZINC001127302705   -0.1800
     29 H29       -13.5098   -2.6617   61.6473 H       1  ZINC001127302705    0.0500
     30 H30       -15.0859   -3.4855   61.5731 H       1  ZINC001127302705    0.0600
     31 H31       -14.2284   -3.0679   60.0703 H       1  ZINC001127302705    0.0500
     32 H32       -16.0833   -1.4813   60.5069 H       1  ZINC001127302705    0.0900
     33 H33       -15.3648   -1.0751   62.0839 H       1  ZINC001127302705    0.0800
     34 H34       -15.3555    1.3235   61.1465 H       1  ZINC001127302705    0.0700
     35 H35       -14.3831    1.6764   59.6980 H       1  ZINC001127302705    0.0500
     36 H36       -15.8948    0.7483   59.5507 H       1  ZINC001127302705    0.0800
     37 H37       -12.7098    0.9440   61.1442 H       1  ZINC001127302705    0.0800
     38 H38       -13.2904   -0.2655   62.3138 H       1  ZINC001127302705    0.0700
     39 H39        -9.4007    0.7453   64.0250 H       1  ZINC001127302705    0.1700
     40 H40        -7.3231    0.1053   62.8757 H       1  ZINC001127302705    0.1500
     41 H41        -7.4516   -1.0912   60.6998 H       1  ZINC001127302705    0.1500
     42 H42       -14.1369   -1.7277   58.7657 H       1  ZINC001127302705    0.4100
     43 H43        -9.8711    0.2372   54.3458 H       1  ZINC001127302705    0.1000
     44 H44       -10.1320   -1.3829   53.6562 H       1  ZINC001127302705    0.1100
     45 H45       -12.5244    1.4263   54.2327 H       1  ZINC001127302705    0.1200
     46 H46       -13.8824    2.4115   52.4305 H       1  ZINC001127302705    0.1300
     47 H47       -13.5750    1.6597   50.1059 H       1  ZINC001127302705    0.1200
     48 H48       -11.9092   -0.0767   49.5836 H       1  ZINC001127302705    0.1300
     49 H49       -10.5479   -1.0585   51.3853 H       1  ZINC001127302705    0.1300
     50 H50       -12.2854   -2.7424   54.5163 H       1  ZINC001127302705    0.1800
     51 H51       -13.5597   -2.6418   56.8354 H       1  ZINC001127302705    0.1600
@<TRIPOS>BOND
     1     1     2    1
     2     1    29    1
     3     1    30    1
     4     1    31    1
     5     2     3    1
     6     2    32    1
     7     2    33    1
     8     3     4    1
     9     3     5    1
    10     3    14    1
    11     4    34    1
    12     4    35    1
    13     4    36    1
    14     5     6    1
    15     5    37    1
    16     5    38    1
    17     6     7    1
    18     7    12   ar
    19     7     8   ar
    20     8     9   ar
    21     9    10   ar
    22     9    39    1
    23    10    11   ar
    24    10    40    1
    25    11    12   ar
    26    11    41    1
    27    12    13    1
    28    14    15   am
    29    14    42    1
    30    15    16    2
    31    15    17    1
    32    17    28    1
    33    17    18    2
    34    18    19    1
    35    19    20    1
    36    19    27    1
    37    20    21    1
    38    20    43    1
    39    20    44    1
    40    21    26   ar
    41    21    22   ar
    42    22    23   ar
    43    22    45    1
    44    23    24   ar
    45    23    46    1
    46    24    25   ar
    47    24    47    1
    48    25    26   ar
    49    25    48    1
    50    26    49    1
    51    27    28    2
    52    27    50    1
    53    28    51    1
@<TRIPOS>SUBSTRUCTURE
     1 ZINC001127302705        1 TEMP              0 ****  ****    0 ROOT


##########                                Name:    ZINC000504638019
##########                DOCK_Rotatable_Bonds:                   8
##########                         Heavy_Atoms:                  24
##########                    Molecular_Weight:             328.454
##########                DOCK_Rotatable_Bonds:                   8
##########                       Formal_Charge:        -1.49012e-08
##########                     HBond_Acceptors:                   4
##########                        HBond_Donors:                   1
##########                         Heavy_Atoms:                  24
##########                          Grid_Score:          -27.526066
##########                     Grid_vdw_energy:          -26.353413
##########                      Grid_es_energy:           -1.172653
##########           Internal_energy_repulsive:           16.134403

@<TRIPOS>MOLECULE
ZINC000504638019
 52 53 1 0 0
SMALL
USER_CHARGES


@<TRIPOS>ATOM
      1 C1         -0.5701    2.3759   57.3513 C.3     1  ZINC000504638019   -0.1200
      2 C2         -1.4863    2.8776   56.2650 C.ar    1  ZINC000504638019   -0.0900
      3 C3         -2.8506    2.9308   56.4813 C.ar    1  ZINC000504638019   -0.1200
      4 C4         -3.6910    3.3910   55.4850 C.ar    1  ZINC000504638019   -0.1100
      5 C5         -3.1670    3.7984   54.2723 C.ar    1  ZINC000504638019   -0.0900
      6 C6         -4.0832    4.2996   53.1859 C.3     1  ZINC000504638019   -0.0600
      7 H7         -5.1112    4.2981   53.5481 H       1  ZINC000504638019    0.0900
      8 C8         -3.6816    5.7239   52.7969 C.3     1  ZINC000504638019   -0.1500
      9 C9         -3.9719    3.3865   51.9633 C.3     1  ZINC000504638019    0.1300
     10 N10        -4.8463    2.2245   52.1404 N.am    1  ZINC000504638019   -0.7000
     11 C11        -6.0229    2.1606   51.4862 C.2     1  ZINC000504638019    0.5100
     12 O12        -6.3574    3.0649   50.7494 O.2     1  ZINC000504638019   -0.5100
     13 C13        -6.9158    0.9760   51.6683 C.2     1  ZINC000504638019    0.5100
     14 O14        -6.5952   -0.1014   51.2113 O.2     1  ZINC000504638019   -0.5200
     15 N15        -8.0771    1.1043   52.3402 N.am    1  ZINC000504638019   -0.5800
     16 C16        -8.9523   -0.0569   52.5186 C.3     1  ZINC000504638019    0.0600
     17 C17        -8.4642    2.4050   52.8920 C.3     1  ZINC000504638019    0.1100
     18 C18        -8.8219    2.2455   54.3710 C.3     1  ZINC000504638019   -0.1000
     19 H19        -9.4547    1.3677   54.5022 H       1  ZINC000504638019    0.0800
     20 C20        -9.5640    3.4920   54.8581 C.3     1  ZINC000504638019   -0.0800
     21 C21        -9.6869    3.4689   56.3536 C.2     1  ZINC000504638019   -0.1500
     22 C22        -8.9730    2.7170   57.1284 C.2     1  ZINC000504638019   -0.1600
     23 C23        -7.9295    1.7559   56.6391 C.3     1  ZINC000504638019   -0.0900
     24 C24        -7.5396    2.0849   55.1973 C.3     1  ZINC000504638019   -0.1100
     25 C25        -1.8026    3.7465   54.0565 C.ar    1  ZINC000504638019   -0.1100
     26 C26        -0.9619    3.2899   55.0543 C.ar    1  ZINC000504638019   -0.1200
     27 H27        -0.2584    3.2113   57.9782 H       1  ZINC000504638019    0.0700
     28 H28        -1.0969    1.6413   57.9604 H       1  ZINC000504638019    0.0700
     29 H29         0.3075    1.9122   56.9010 H       1  ZINC000504638019    0.0700
     30 H30        -3.2599    2.6125   57.4287 H       1  ZINC000504638019    0.1200
     31 H31        -4.7569    3.4319   55.6537 H       1  ZINC000504638019    0.1200
     32 H32        -4.3443    6.0864   52.0110 H       1  ZINC000504638019    0.0600
     33 H33        -3.7609    6.3744   53.6678 H       1  ZINC000504638019    0.0600
     34 H34        -2.6536    5.7254   52.4347 H       1  ZINC000504638019    0.0600
     35 H35        -4.2733    3.9353   51.0712 H       1  ZINC000504638019    0.0800
     36 H36        -2.9404    3.0516   51.8528 H       1  ZINC000504638019    0.0800
     37 H37        -4.5784    1.5010   52.7285 H       1  ZINC000504638019    0.4100
     38 H38        -8.6194   -0.6336   53.3816 H       1  ZINC000504638019    0.0600
     39 H39        -9.9759    0.2810   52.6803 H       1  ZINC000504638019    0.0700
     40 H40        -8.9127   -0.6822   51.6267 H       1  ZINC000504638019    0.1100
     41 H41        -7.6335    3.1037   52.7925 H       1  ZINC000504638019    0.0900
     42 H42        -9.3279    2.7878   52.3485 H       1  ZINC000504638019    0.0900
     43 H43        -9.0129    4.3822   54.5546 H       1  ZINC000504638019    0.0800
     44 H44       -10.5591    3.5167   54.4141 H       1  ZINC000504638019    0.0600
     45 H45       -10.4163    4.1204   56.8118 H       1  ZINC000504638019    0.1000
     46 H46        -9.1383    2.7858   58.1935 H       1  ZINC000504638019    0.1000
     47 H47        -7.0483    1.8237   57.2771 H       1  ZINC000504638019    0.0700
     48 H48        -8.3254    0.7413   56.6798 H       1  ZINC000504638019    0.0700
     49 H49        -6.9331    1.2768   54.7884 H       1  ZINC000504638019    0.0700
     50 H50        -6.9764    3.0178   55.1737 H       1  ZINC000504638019    0.0700
     51 H51        -1.3932    4.0652   53.1092 H       1  ZINC000504638019    0.1200
     52 H52         0.1041    3.2494   54.8856 H       1  ZINC000504638019    0.1200
@<TRIPOS>BOND
     1     1     2    1
     2     1    27    1
     3     1    28    1
     4     1    29    1
     5     2    26   ar
     6     2     3   ar
     7     3     4   ar
     8     3    30    1
     9     4     5   ar
    10     4    31    1
    11     5     6    1
    12     5    25   ar
    13     6     7    1
    14     6     8    1
    15     6     9    1
    16     8    32    1
    17     8    33    1
    18     8    34    1
    19     9    10    1
    20     9    35    1
    21     9    36    1
    22    10    11   am
    23    10    37    1
    24    11    12    2
    25    11    13    1
    26    13    14    2
    27    13    15   am
    28    15    16    1
    29    15    17    1
    30    16    38    1
    31    16    39    1
    32    16    40    1
    33    17    18    1
    34    17    41    1
    35    17    42    1
    36    18    19    1
    37    18    24    1
    38    18    20    1
    39    20    21    1
    40    20    43    1
    41    20    44    1
    42    21    22    2
    43    21    45    1
    44    22    23    1
    45    22    46    1
    46    23    24    1
    47    23    47    1
    48    23    48    1
    49    24    49    1
    50    24    50    1
    51    25    26   ar
    52    25    51    1
    53    26    52    1
@<TRIPOS>SUBSTRUCTURE
     1 ZINC000504638019        1 TEMP              0 ****  ****    0 ROOT


##########                                Name:    ZINC000906038034
##########                DOCK_Rotatable_Bonds:                   5
##########                         Heavy_Atoms:                  23
##########                    Molecular_Weight:             387.428
##########                DOCK_Rotatable_Bonds:                   5
##########                       Formal_Charge:         -0.00999987
##########                     HBond_Acceptors:                  12
##########                        HBond_Donors:                   0
##########                         Heavy_Atoms:                  23
##########                          Grid_Score:          -27.516464
##########                     Grid_vdw_energy:          -27.976492
##########                      Grid_es_energy:            0.460027
##########           Internal_energy_repulsive:            4.334016

@<TRIPOS>MOLECULE
ZINC000906038034
 35 36 1 0 0
SMALL
USER_CHARGES


@<TRIPOS>ATOM
      1 C1         -0.3798    1.5674   47.1254 C.3     1  ZINC000906038034    0.1000
      2 N2         -0.7554    1.9023   48.5013 N.pl3   1  ZINC000906038034   -0.3700
      3 C3          0.0841    1.9721   49.5571 C.2     1  ZINC000906038034    0.0600
      4 C4         -0.6406    2.3080   50.6457 C.2     1  ZINC000906038034   -0.2500
      5 C5         -1.9844    2.4512   50.2428 C.2     1  ZINC000906038034    0.1200
      6 C6         -3.1215    2.8130   51.1167 C.2     1  ZINC000906038034    0.1500
      7 N7         -4.3783    2.7681   50.7789 N.2     1  ZINC000906038034   -0.4300
      8 C8         -5.2544    3.1274   51.6895 C.2     1  ZINC000906038034    0.0600
      9 C9         -6.7372    3.1182   51.4211 C.3     1  ZINC000906038034   -0.5300
     10 S10        -7.5376    1.8906   52.4902 S.o2    1  ZINC000906038034    2.4200
     11 O11        -7.2234    0.5930   52.0037 O.2     1  ZINC000906038034   -0.9100
     12 O12        -7.2496    2.2127   53.8438 O.2     1  ZINC000906038034   -0.9200
     13 C13        -9.2956    2.2138   52.1809 C.3     1  ZINC000906038034   -0.6100
     14 C14       -10.1385    1.5154   53.2498 C.3     1  ZINC000906038034   -0.4500
     15 S15       -10.3696   -0.2256   52.7956 S.o     1  ZINC000906038034    1.3300
     16 O16       -11.1080   -0.3049   51.5841 O.2     1  ZINC000906038034   -0.7600
     17 C17       -11.3748   -0.8731   54.1598 C.3     1  ZINC000906038034    0.1200
     18 F18       -12.5822   -0.1694   54.2244 F       1  ZINC000906038034   -0.1900
     19 F19       -11.6369   -2.2300   53.9426 F       1  ZINC000906038034   -0.1700
     20 F20       -10.6804   -0.7193   55.3646 F       1  ZINC000906038034   -0.1600
     21 C21        -4.7489    3.5011   52.8691 C.2     1  ZINC000906038034   -0.2300
     22 S22        -2.9935    3.3667   52.7843 S.3     1  ZINC000906038034    0.1600
     23 N23        -2.0464    2.2113   48.9484 N.2     1  ZINC000906038034   -0.2400
     24 H24        -0.1167    2.4788   46.5885 H       1  ZINC000906038034    0.0800
     25 H25         0.4759    0.8923   47.1365 H       1  ZINC000906038034    0.0900
     26 H26        -1.2192    1.0819   46.6275 H       1  ZINC000906038034    0.0900
     27 H27         1.1486    1.7907   49.5346 H       1  ZINC000906038034    0.1800
     28 H28        -0.2591    2.4425   51.6471 H       1  ZINC000906038034    0.1600
     29 H29        -7.1502    4.1053   51.6287 H       1  ZINC000906038034    0.1500
     30 H30        -6.9158    2.8620   50.3768 H       1  ZINC000906038034    0.1600
     31 H31        -9.4797    3.2875   52.2172 H       1  ZINC000906038034    0.1500
     32 H32        -9.5676    1.8318   51.1968 H       1  ZINC000906038034    0.1500
     33 H33        -9.6284    1.5755   54.2112 H       1  ZINC000906038034    0.1600
     34 H34       -11.1101    2.0040   53.3230 H       1  ZINC000906038034    0.1300
     35 H35        -5.3182    3.8255   53.7276 H       1  ZINC000906038034    0.1900
@<TRIPOS>BOND
     1     1     2    1
     2     1    24    1
     3     1    25    1
     4     1    26    1
     5     2    23    1
     6     2     3    1
     7     3     4    2
     8     3    27    1
     9     4     5    1
    10     4    28    1
    11     5     6    1
    12     5    23    2
    13     6    22    1
    14     6     7    2
    15     7     8    1
    16     8     9    1
    17     8    21    2
    18     9    10    1
    19     9    29    1
    20     9    30    1
    21    10    11    2
    22    10    12    2
    23    10    13    1
    24    13    14    1
    25    13    31    1
    26    13    32    1
    27    14    15    1
    28    14    33    1
    29    14    34    1
    30    15    16    2
    31    15    17    1
    32    17    18    1
    33    17    19    1
    34    17    20    1
    35    21    22    1
    36    21    35    1
@<TRIPOS>SUBSTRUCTURE
     1 ZINC000906038034        1 TEMP              0 ****  ****    0 ROOT


##########                                Name:    ZINC000337709254
##########                DOCK_Rotatable_Bonds:                   7
##########                         Heavy_Atoms:                  22
##########                    Molecular_Weight:              329.42
##########                DOCK_Rotatable_Bonds:                   7
##########                       Formal_Charge:           0.0300004
##########                     HBond_Acceptors:                   8
##########                        HBond_Donors:                   2
##########                         Heavy_Atoms:                  22
##########                          Grid_Score:          -27.513109
##########                     Grid_vdw_energy:          -25.398357
##########                      Grid_es_energy:           -2.114752
##########           Internal_energy_repulsive:           11.237709

@<TRIPOS>MOLECULE
ZINC000337709254
 45 46 1 0 0
SMALL
USER_CHARGES


@<TRIPOS>ATOM
      1 C1         -7.5838    1.2871   51.7426 C.3     1  ZINC000337709254   -0.6700
      2 S2         -6.3691    2.3716   50.9433 S.o2    1  ZINC000337709254    2.6100
      3 O3         -6.2889    2.0909   49.5526 O.2     1  ZINC000337709254   -0.9500
      4 O4         -6.5048    3.7052   51.4150 O.2     1  ZINC000337709254   -0.9500
      5 N5         -4.9096    1.8720   51.5456 N.am    1  ZINC000337709254   -1.1200
      6 C6         -3.6749    2.5330   51.1157 C.3     1  ZINC000337709254    0.1200
      7 C7         -3.4064    3.7441   52.0114 C.3     1  ZINC000337709254   -0.1100
      8 H8         -4.2642    4.4166   52.0093 H       1  ZINC000337709254    0.1100
      9 C9         -3.0781    3.2886   53.4550 C.3     1  ZINC000337709254   -0.1200
     10 C10        -2.2734    4.4869   54.0168 C.3     1  ZINC000337709254   -0.1200
     11 C11        -1.4142    4.9575   52.8252 C.3     1  ZINC000337709254   -0.1400
     12 C12        -2.1365    4.4874   51.5480 C.3     1  ZINC000337709254    0.1500
     13 H13        -2.4057    5.3465   50.9335 H       1  ZINC000337709254    0.1000
     14 N14        -1.2735    3.5788   50.7891 N.am    1  ZINC000337709254   -0.7200
     15 C15        -0.4509    4.0666   49.8395 C.2     1  ZINC000337709254    0.5300
     16 O16        -0.4261    5.2578   49.6122 O.2     1  ZINC000337709254   -0.5100
     17 C17         0.4381    3.1323   49.0601 C.3     1  ZINC000337709254    0.0200
     18 C18         1.3012    3.9118   48.1578 C.1     1  ZINC000337709254    0.2000
     19 N19         1.9672    4.5135   47.4615 N.1     1  ZINC000337709254   -0.3900
     20 C20         1.3053    2.3227   50.0291 C.3     1  ZINC000337709254   -0.1500
     21 C21         2.1475    1.3218   49.2338 C.3     1  ZINC000337709254    0.0600
     22 O22         1.2849    0.4775   48.4687 O.3     1  ZINC000337709254   -0.3700
     23 C23         0.4839    1.1746   47.5124 C.3     1  ZINC000337709254    0.0600
     24 C24        -0.4251    2.1697   48.2386 C.3     1  ZINC000337709254   -0.1300
     25 H25        -7.3705    0.2499   51.4840 H       1  ZINC000337709254    0.1300
     26 H26        -7.5257    1.4113   52.8240 H       1  ZINC000337709254    0.1300
     27 H27        -8.5851    1.5483   51.4001 H       1  ZINC000337709254    0.1300
     28 H28        -4.8723    1.1417   52.1828 H       1  ZINC000337709254    0.4200
     29 H29        -2.8427    1.8333   51.1918 H       1  ZINC000337709254    0.0600
     30 H30        -3.7798    2.8618   50.0818 H       1  ZINC000337709254    0.0900
     31 H31        -3.9921    3.1341   54.0285 H       1  ZINC000337709254    0.0800
     32 H32        -2.4691    2.3846   53.4457 H       1  ZINC000337709254    0.0700
     33 H33        -2.9468    5.2811   54.3389 H       1  ZINC000337709254    0.0700
     34 H34        -1.6380    4.1662   54.8423 H       1  ZINC000337709254    0.0700
     35 H35        -1.3349    6.0447   52.8284 H       1  ZINC000337709254    0.0800
     36 H36        -0.4218    4.5103   52.8808 H       1  ZINC000337709254    0.0700
     37 H37        -1.2943    2.6260   50.9699 H       1  ZINC000337709254    0.4000
     38 H38         1.9628    2.9961   50.5789 H       1  ZINC000337709254    0.0900
     39 H39         0.6653    1.7853   50.7288 H       1  ZINC000337709254    0.1100
     40 H40         2.8162    1.8614   48.5631 H       1  ZINC000337709254    0.0500
     41 H41         2.7351    0.7137   49.9214 H       1  ZINC000337709254    0.1100
     42 H42         1.1310    1.7123   46.8192 H       1  ZINC000337709254    0.0500
     43 H43        -0.1269    0.4604   46.9602 H       1  ZINC000337709254    0.1100
     44 H44        -1.1001    1.6291   48.9022 H       1  ZINC000337709254    0.1100
     45 H45        -1.0050    2.7335   47.5081 H       1  ZINC000337709254    0.0900
@<TRIPOS>BOND
     1     1     2    1
     2     1    25    1
     3     1    26    1
     4     1    27    1
     5     2     3    2
     6     2     4    2
     7     2     5   am
     8     5     6    1
     9     5    28    1
    10     6     7    1
    11     6    29    1
    12     6    30    1
    13     7     8    1
    14     7    12    1
    15     7     9    1
    16     9    10    1
    17     9    31    1
    18     9    32    1
    19    10    11    1
    20    10    33    1
    21    10    34    1
    22    11    12    1
    23    11    35    1
    24    11    36    1
    25    12    13    1
    26    12    14    1
    27    14    15   am
    28    14    37    1
    29    15    16    2
    30    15    17    1
    31    17    24    1
    32    17    18    1
    33    17    20    1
    34    18    19    3
    35    20    21    1
    36    20    38    1
    37    20    39    1
    38    21    22    1
    39    21    40    1
    40    21    41    1
    41    22    23    1
    42    23    24    1
    43    23    42    1
    44    23    43    1
    45    24    44    1
    46    24    45    1
@<TRIPOS>SUBSTRUCTURE
     1 ZINC000337709254        1 TEMP              0 ****  ****    0 ROOT


##########                                Name:    ZINC000194290865
##########                DOCK_Rotatable_Bonds:                   7
##########                         Heavy_Atoms:                  28
##########                    Molecular_Weight:             387.479
##########                DOCK_Rotatable_Bonds:                   7
##########                       Formal_Charge:          -0.0400003
##########                     HBond_Acceptors:                   7
##########                        HBond_Donors:                   0
##########                         Heavy_Atoms:                  28
##########                          Grid_Score:          -27.510973
##########                     Grid_vdw_energy:          -26.930708
##########                      Grid_es_energy:           -0.580265
##########           Internal_energy_repulsive:           29.194042

@<TRIPOS>MOLECULE
ZINC000194290865
 57 59 1 0 0
SMALL
USER_CHARGES


@<TRIPOS>ATOM
      1 C1        -10.2933    0.6064   52.5145 C.3     1  ZINC000194290865   -0.1500
      2 C2         -9.9185   -0.7640   53.0822 C.3     1  ZINC000194290865    0.0600
      3 O3        -10.8764   -1.1426   54.1056 O.3     1  ZINC000194290865   -0.3600
      4 C4        -10.8256   -0.4705   55.2664 C.2     1  ZINC000194290865    0.4700
      5 O5         -9.9532    0.3439   55.4553 O.2     1  ZINC000194290865   -0.4900
      6 C6        -11.8565   -0.7318   56.3342 C.3     1  ZINC000194290865   -0.0600
      7 C7        -13.1153    0.0967   56.0704 C.3     1  ZINC000194290865   -0.0700
      8 C8        -12.7322    1.5690   55.9075 C.3     1  ZINC000194290865   -0.1700
      9 C9        -13.7931   -0.3985   54.7913 C.3     1  ZINC000194290865   -0.1600
     10 C10       -12.2034   -2.2376   56.3888 C.3     1  ZINC000194290865   -0.1200
     11 C11       -11.3069   -2.7558   57.5414 C.3     1  ZINC000194290865    0.0900
     12 N12       -11.3352   -1.6443   58.5199 N.am    1  ZINC000194290865   -0.6100
     13 C13       -11.3966   -1.7460   59.8624 C.2     1  ZINC000194290865    0.5800
     14 O14       -11.4353   -2.8412   60.3877 O.2     1  ZINC000194290865   -0.5000
     15 C15       -11.4171   -0.5238   60.6969 C.ar    1  ZINC000194290865    0.0100
     16 C16       -12.6255   -0.0112   61.2068 C.ar    1  ZINC000194290865   -0.2200
     17 C17       -12.6004    1.1522   61.9951 C.ar    1  ZINC000194290865    0.3000
     18 N18       -11.4494    1.7545   62.2516 N.ar    1  ZINC000194290865   -0.4700
     19 C19       -10.3049    1.2987   61.7888 C.ar    1  ZINC000194290865    0.2100
     20 C20        -9.0327    2.0351   62.1211 C.3     1  ZINC000194290865   -0.1100
     21 C21       -10.2395    0.1553   61.0091 C.ar    1  ZINC000194290865   -0.1800
     22 O22       -13.8760    1.4157   62.3439 O.3     1  ZINC000194290865   -0.0800
     23 N23       -14.7274    0.4338   61.7888 N.2     1  ZINC000194290865   -0.2600
     24 C24       -14.0254   -0.4233   61.1122 C.2     1  ZINC000194290865    0.1600
     25 C25       -14.5552   -1.6212   60.3669 C.3     1  ZINC000194290865   -0.0400
     26 C26       -14.7583   -2.7809   61.3439 C.3     1  ZINC000194290865   -0.1500
     27 C27       -15.8918   -1.2649   59.7132 C.3     1  ZINC000194290865   -0.1400
     28 C28       -11.2814   -0.4034   57.7245 C.3     1  ZINC000194290865    0.1200
     29 H29       -11.2911    0.5583   52.0783 H       1  ZINC000194290865    0.0700
     30 H30       -10.2819    1.3465   53.3146 H       1  ZINC000194290865    0.0700
     31 H31        -9.5741    0.8905   51.7463 H       1  ZINC000194290865    0.0800
     32 H32        -9.9299   -1.5042   52.2821 H       1  ZINC000194290865    0.0700
     33 H33        -8.9207   -0.7160   53.5185 H       1  ZINC000194290865    0.0700
     34 H34       -13.8024   -0.0092   56.9099 H       1  ZINC000194290865    0.0900
     35 H35       -12.2494    1.9218   56.8188 H       1  ZINC000194290865    0.0500
     36 H36       -12.0450    1.6747   55.0679 H       1  ZINC000194290865    0.0800
     37 H37       -13.6290    2.1592   55.7196 H       1  ZINC000194290865    0.0600
     38 H38       -14.0661   -1.4473   54.9073 H       1  ZINC000194290865    0.0500
     39 H39       -14.6900    0.1917   54.6033 H       1  ZINC000194290865    0.0600
     40 H40       -13.1060   -0.2927   53.9516 H       1  ZINC000194290865    0.0800
     41 H41       -13.2576   -2.3825   56.6248 H       1  ZINC000194290865    0.0900
     42 H42       -11.9461   -2.7272   55.4496 H       1  ZINC000194290865    0.0900
     43 H43       -11.7264   -3.6626   57.9770 H       1  ZINC000194290865    0.0900
     44 H44       -10.2906   -2.9320   57.1888 H       1  ZINC000194290865    0.0900
     45 H45        -8.6137    1.6377   63.0454 H       1  ZINC000194290865    0.0900
     46 H46        -8.3151    1.9043   61.3111 H       1  ZINC000194290865    0.0900
     47 H47        -9.2493    3.0959   62.2470 H       1  ZINC000194290865    0.0900
     48 H48        -9.2890   -0.2010   60.6403 H       1  ZINC000194290865    0.1600
     49 H49       -13.8413   -1.9152   59.5974 H       1  ZINC000194290865    0.1100
     50 H50       -15.4722   -2.4870   62.1134 H       1  ZINC000194290865    0.0700
     51 H51       -15.1415   -3.6473   60.8048 H       1  ZINC000194290865    0.0700
     52 H52       -13.8061   -3.0348   61.8097 H       1  ZINC000194290865    0.0600
     53 H53       -15.7470   -0.4387   59.0171 H       1  ZINC000194290865    0.0600
     54 H54       -16.2749   -2.1313   59.1741 H       1  ZINC000194290865    0.0700
     55 H55       -16.6056   -0.9709   60.4826 H       1  ZINC000194290865    0.0600
     56 H56       -10.2487   -0.0679   57.6294 H       1  ZINC000194290865    0.0800
     57 H57       -11.8833    0.3699   58.2020 H       1  ZINC000194290865    0.1000
@<TRIPOS>BOND
     1     1     2    1
     2     1    29    1
     3     1    30    1
     4     1    31    1
     5     2     3    1
     6     2    32    1
     7     2    33    1
     8     3     4    1
     9     4     5    2
    10     4     6    1
    11     6    28    1
    12     6     7    1
    13     6    10    1
    14     7     8    1
    15     7     9    1
    16     7    34    1
    17     8    35    1
    18     8    36    1
    19     8    37    1
    20     9    38    1
    21     9    39    1
    22     9    40    1
    23    10    11    1
    24    10    41    1
    25    10    42    1
    26    11    12    1
    27    11    43    1
    28    11    44    1
    29    12    13   am
    30    12    28    1
    31    13    14    2
    32    13    15    1
    33    15    21   ar
    34    15    16   ar
    35    16    24    1
    36    16    17   ar
    37    17    18   ar
    38    17    22    1
    39    18    19   ar
    40    19    20    1
    41    19    21   ar
    42    20    45    1
    43    20    46    1
    44    20    47    1
    45    21    48    1
    46    22    23    1
    47    23    24    2
    48    24    25    1
    49    25    26    1
    50    25    27    1
    51    25    49    1
    52    26    50    1
    53    26    51    1
    54    26    52    1
    55    27    53    1
    56    27    54    1
    57    27    55    1
    58    28    56    1
    59    28    57    1
@<TRIPOS>SUBSTRUCTURE
     1 ZINC000194290865        1 TEMP              0 ****  ****    0 ROOT


##########                                Name:    ZINC000066361645
##########                DOCK_Rotatable_Bonds:                   8
##########                         Heavy_Atoms:                  27
##########                    Molecular_Weight:             392.519
##########                DOCK_Rotatable_Bonds:                   8
##########                       Formal_Charge:           0.0100004
##########                     HBond_Acceptors:                   7
##########                        HBond_Donors:                   2
##########                         Heavy_Atoms:                  27
##########                          Grid_Score:          -27.508102
##########                     Grid_vdw_energy:          -27.632111
##########                      Grid_es_energy:            0.124007
##########           Internal_energy_repulsive:           10.276143

@<TRIPOS>MOLECULE
ZINC000066361645
 55 57 1 0 0
SMALL
USER_CHARGES


@<TRIPOS>ATOM
      1 C1         -7.4118    1.8414   57.3753 C.3     1  ZINC000066361645   -0.1400
      2 S2         -8.8599    1.9181   56.2856 S.3     1  ZINC000066361645   -0.1100
      3 C3         -8.1599    1.7159   54.6814 C.ar    1  ZINC000066361645   -0.1200
      4 C4         -7.1143    2.5298   54.2721 C.ar    1  ZINC000066361645   -0.1100
      5 C5         -6.5618    2.3709   53.0095 C.ar    1  ZINC000066361645    0.0500
      6 C6         -7.0552    1.3939   52.1535 C.ar    1  ZINC000066361645    0.0700
      7 C7         -8.1023    0.5798   52.5602 C.ar    1  ZINC000066361645   -0.1100
      8 C8         -8.6525    0.7333   53.8231 C.ar    1  ZINC000066361645    0.1800
      9 N9         -9.7112   -0.0911   54.2331 N.am    1  ZINC000066361645   -0.6600
     10 C10       -10.9813    0.3518   54.1504 C.2     1  ZINC000066361645    0.5100
     11 O11       -11.2093    1.4634   53.7214 O.2     1  ZINC000066361645   -0.5000
     12 C12       -12.1184   -0.5337   54.5907 C.3     1  ZINC000066361645   -0.1500
     13 C13       -11.6681   -1.3905   55.7756 C.3     1  ZINC000066361645    0.1600
     14 H14       -10.7076   -1.8517   55.5462 H       1  ZINC000066361645    0.1000
     15 C15       -12.7076   -2.4817   56.0401 C.3     1  ZINC000066361645   -0.1600
     16 N16       -11.5329   -0.5463   56.9652 N.am    1  ZINC000066361645   -0.7200
     17 C17       -10.8163   -0.9797   58.0213 C.2     1  ZINC000066361645    0.5300
     18 O18       -10.2825   -2.0682   57.9861 O.2     1  ZINC000066361645   -0.5400
     19 C19       -10.6787   -0.1121   59.2457 C.3     1  ZINC000066361645   -0.1100
     20 C20       -11.9350   -0.2450   60.1088 C.3     1  ZINC000066361645   -0.1100
     21 C21       -11.7953    0.6359   61.3519 C.3     1  ZINC000066361645   -0.1200
     22 C22       -10.5734    0.1906   62.1578 C.3     1  ZINC000066361645   -0.1200
     23 C23        -9.3170    0.3235   61.2947 C.3     1  ZINC000066361645   -0.1200
     24 C24        -9.4568   -0.5574   60.0516 C.3     1  ZINC000066361645   -0.1000
     25 O25        -6.5191    1.2193   50.9131 O.3     1  ZINC000066361645   -0.3000
     26 C26        -5.7243    2.2929   50.3983 C.3     1  ZINC000066361645    0.0200
     27 C27        -4.7610    2.7496   51.5022 C.3     1  ZINC000066361645    0.0200
     28 O28        -5.5381    3.1823   52.6240 O.3     1  ZINC000066361645   -0.3100
     29 H29        -6.9156    0.8786   57.2531 H       1  ZINC000066361645    0.0900
     30 H30        -6.7194    2.6424   57.1164 H       1  ZINC000066361645    0.0900
     31 H31        -7.7301    1.9571   58.4114 H       1  ZINC000066361645    0.1100
     32 H32        -6.7296    3.2887   54.9374 H       1  ZINC000066361645    0.1400
     33 H33        -8.4868   -0.1775   51.8932 H       1  ZINC000066361645    0.1600
     34 H34        -9.5289   -0.9799   54.5761 H       1  ZINC000066361645    0.4100
     35 H35       -12.9651    0.0840   54.8900 H       1  ZINC000066361645    0.1000
     36 H36       -12.4148   -1.1815   53.7658 H       1  ZINC000066361645    0.1200
     37 H37       -13.6682   -2.0204   56.2694 H       1  ZINC000066361645    0.0600
     38 H38       -12.8082   -3.1097   55.1550 H       1  ZINC000066361645    0.0700
     39 H39       -12.3868   -3.0920   56.8843 H       1  ZINC000066361645    0.0700
     40 H40       -11.9590    0.3247   56.9929 H       1  ZINC000066361645    0.4000
     41 H41       -10.5547    0.9275   58.9423 H       1  ZINC000066361645    0.1000
     42 H42       -12.8055    0.0722   59.5347 H       1  ZINC000066361645    0.0600
     43 H43       -12.0590   -1.2846   60.4123 H       1  ZINC000066361645    0.0700
     44 H44       -11.6712    1.6754   61.0485 H       1  ZINC000066361645    0.0600
     45 H45       -12.6902    0.5412   61.9669 H       1  ZINC000066361645    0.0700
     46 H46       -10.4738    0.8182   63.0435 H       1  ZINC000066361645    0.0600
     47 H47       -10.6973   -0.8489   62.4613 H       1  ZINC000066361645    0.0600
     48 H48        -9.1931    1.3632   60.9913 H       1  ZINC000066361645    0.0600
     49 H49        -8.4465    0.0063   61.8689 H       1  ZINC000066361645    0.0700
     50 H50        -9.5808   -1.5969   60.3550 H       1  ZINC000066361645    0.0700
     51 H51        -8.5618   -0.4627   59.4367 H       1  ZINC000066361645    0.0700
     52 H52        -5.1563    1.9484   49.5341 H       1  ZINC000066361645    0.1300
     53 H53        -6.3700    3.1218   50.1077 H       1  ZINC000066361645    0.0800
     54 H54        -4.1199    1.9190   51.7974 H       1  ZINC000066361645    0.0800
     55 H55        -4.1495    3.5754   51.1381 H       1  ZINC000066361645    0.1200
@<TRIPOS>BOND
     1     1     2    1
     2     1    29    1
     3     1    30    1
     4     1    31    1
     5     2     3    1
     6     3     8   ar
     7     3     4   ar
     8     4     5   ar
     9     4    32    1
    10     5    28    1
    11     5     6   ar
    12     6     7   ar
    13     6    25    1
    14     7     8   ar
    15     7    33    1
    16     8     9    1
    17     9    10   am
    18     9    34    1
    19    10    11    2
    20    10    12    1
    21    12    13    1
    22    12    35    1
    23    12    36    1
    24    13    14    1
    25    13    15    1
    26    13    16    1
    27    15    37    1
    28    15    38    1
    29    15    39    1
    30    16    17   am
    31    16    40    1
    32    17    18    2
    33    17    19    1
    34    19    24    1
    35    19    20    1
    36    19    41    1
    37    20    21    1
    38    20    42    1
    39    20    43    1
    40    21    22    1
    41    21    44    1
    42    21    45    1
    43    22    23    1
    44    22    46    1
    45    22    47    1
    46    23    24    1
    47    23    48    1
    48    23    49    1
    49    24    50    1
    50    24    51    1
    51    25    26    1
    52    26    27    1
    53    26    52    1
    54    26    53    1
    55    27    28    1
    56    27    54    1
    57    27    55    1
@<TRIPOS>SUBSTRUCTURE
     1 ZINC000066361645        1 TEMP              0 ****  ****    0 ROOT


##########                                Name:    ZINC000668548901
##########                DOCK_Rotatable_Bonds:                   9
##########                         Heavy_Atoms:                  26
##########                    Molecular_Weight:             374.464
##########                DOCK_Rotatable_Bonds:                   9
##########                       Formal_Charge:         3.53903e-07
##########                     HBond_Acceptors:                   8
##########                        HBond_Donors:                   3
##########                         Heavy_Atoms:                  26
##########                          Grid_Score:          -27.485518
##########                     Grid_vdw_energy:          -25.685741
##########                      Grid_es_energy:           -1.799777
##########           Internal_energy_repulsive:           14.601192

@<TRIPOS>MOLECULE
ZINC000668548901
 48 50 1 0 0
SMALL
USER_CHARGES


@<TRIPOS>ATOM
      1 O1         -6.9454    3.4748   53.4781 O.2     1  ZINC000668548901   -0.5700
      2 C2         -6.2039    2.8966   52.7073 C.2     1  ZINC000668548901    0.7100
      3 N3         -6.7076    2.0139   51.8220 N.am    1  ZINC000668548901   -0.6800
      4 C4         -8.0795    1.7594   51.7939 C.ar    1  ZINC000668548901    0.2200
      5 C5         -8.5789    0.4947   52.1094 C.ar    1  ZINC000668548901   -0.1700
      6 C6         -9.9399    0.2793   52.0710 C.ar    1  ZINC000668548901    0.1200
      7 N7        -10.7714    1.2499   51.7408 N.ar    1  ZINC000668548901   -0.4300
      8 C8        -10.3397    2.4652   51.4341 C.ar    1  ZINC000668548901    0.1100
      9 S9        -11.4993    3.7194   51.0019 S.3     1  ZINC000668548901    0.0900
     10 C10       -11.4795    3.6875   49.2402 C.ar    1  ZINC000668548901    0.0900
     11 C11       -12.4243    2.9316   48.5538 C.ar    1  ZINC000668548901   -0.1500
     12 C12       -12.3974    2.9160   47.1708 C.ar    1  ZINC000668548901   -0.0700
     13 C13       -11.4230    3.6596   46.5184 C.ar    1  ZINC000668548901   -0.1700
     14 C14       -10.5160    4.3876   47.2630 C.ar    1  ZINC000668548901    0.1000
     15 N15       -10.5685    4.3879   48.5812 N.ar    1  ZINC000668548901   -0.4200
     16 C16        -8.9833    2.7614   51.4562 C.ar    1  ZINC000668548901   -0.1800
     17 N17        -4.8790    3.1424   52.7344 N.am    1  ZINC000668548901   -0.7200
     18 C18        -4.3316    4.1019   53.6966 C.3     1  ZINC000668548901    0.1700
     19 H19        -5.0809    4.8619   53.9182 H       1  ZINC000668548901    0.1000
     20 C20        -3.0894    4.7683   53.1019 C.3     1  ZINC000668548901    0.0600
     21 O21        -2.5236    3.9165   52.1037 O.3     1  ZINC000668548901   -0.5700
     22 C22        -3.9505    3.3705   54.9854 C.3     1  ZINC000668548901   -0.1300
     23 H23        -4.7543    2.6917   55.2703 H       1  ZINC000668548901    0.1000
     24 C24        -3.7214    4.3911   56.1044 C.3     1  ZINC000668548901   -0.1200
     25 C25        -3.2653    3.6538   57.3673 C.3     1  ZINC000668548901   -0.1600
     26 C26        -2.0037    2.8466   57.0499 C.3     1  ZINC000668548901    0.0600
     27 O27        -2.2771    1.9389   55.9806 O.3     1  ZINC000668548901   -0.3800
     28 C28        -2.6633    2.5731   54.7595 C.3     1  ZINC000668548901    0.0700
     29 H29        -6.1165    1.5556   51.2044 H       1  ZINC000668548901    0.4100
     30 H30        -7.9066   -0.3060   52.3801 H       1  ZINC000668548901    0.1500
     31 H31       -10.3314   -0.6974   52.3143 H       1  ZINC000668548901    0.1600
     32 H32       -13.1683    2.3644   49.0931 H       1  ZINC000668548901    0.1400
     33 H33       -13.1179    2.3381   46.6110 H       1  ZINC000668548901    0.1400
     34 H34       -11.3747    3.6683   45.4395 H       1  ZINC000668548901    0.1400
     35 H35        -9.7563    4.9670   46.7597 H       1  ZINC000668548901    0.1600
     36 H36        -8.6345    3.7524   51.2060 H       1  ZINC000668548901    0.1400
     37 H37        -4.2880    2.6840   52.1168 H       1  ZINC000668548901    0.4000
     38 H38        -3.3686    5.7207   52.6512 H       1  ZINC000668548901    0.0500
     39 H39        -2.3568    4.9404   53.8904 H       1  ZINC000668548901    0.0600
     40 H40        -2.2048    3.0695   52.4441 H       1  ZINC000668548901    0.3800
     41 H41        -2.9527    5.1009   55.7989 H       1  ZINC000668548901    0.0700
     42 H42        -4.6506    4.9232   56.3084 H       1  ZINC000668548901    0.0700
     43 H43        -3.0467    4.3774   58.1527 H       1  ZINC000668548901    0.0800
     44 H44        -4.0545    2.9801   57.7009 H       1  ZINC000668548901    0.0700
     45 H45        -1.2028    3.5247   56.7553 H       1  ZINC000668548901    0.0500
     46 H46        -1.6990    2.2861   57.9337 H       1  ZINC000668548901    0.1000
     47 H47        -2.8328    1.8155   53.9944 H       1  ZINC000668548901    0.1000
     48 H48        -1.8716    3.2479   54.4342 H       1  ZINC000668548901    0.0500
@<TRIPOS>BOND
     1     1     2    2
     2     2     3   am
     3     2    17   am
     4     3     4    1
     5     3    29    1
     6     4    16   ar
     7     4     5   ar
     8     5     6   ar
     9     5    30    1
    10     6     7   ar
    11     6    31    1
    12     7     8   ar
    13     8     9    1
    14     8    16   ar
    15     9    10    1
    16    10    15   ar
    17    10    11   ar
    18    11    12   ar
    19    11    32    1
    20    12    13   ar
    21    12    33    1
    22    13    14   ar
    23    13    34    1
    24    14    15   ar
    25    14    35    1
    26    16    36    1
    27    17    18    1
    28    17    37    1
    29    18    19    1
    30    18    20    1
    31    18    22    1
    32    20    21    1
    33    20    38    1
    34    20    39    1
    35    21    40    1
    36    22    23    1
    37    22    28    1
    38    22    24    1
    39    24    25    1
    40    24    41    1
    41    24    42    1
    42    25    26    1
    43    25    43    1
    44    25    44    1
    45    26    27    1
    46    26    45    1
    47    26    46    1
    48    27    28    1
    49    28    47    1
    50    28    48    1
@<TRIPOS>SUBSTRUCTURE
     1 ZINC000668548901        1 TEMP              0 ****  ****    0 ROOT


##########                                Name:    ZINC001085817863
##########                DOCK_Rotatable_Bonds:                   7
##########                         Heavy_Atoms:                  24
##########                    Molecular_Weight:             326.442
##########                DOCK_Rotatable_Bonds:                   7
##########                       Formal_Charge:           0.0299998
##########                     HBond_Acceptors:                   5
##########                        HBond_Donors:                   0
##########                         Heavy_Atoms:                  24
##########                          Grid_Score:          -27.484789
##########                     Grid_vdw_energy:          -26.524996
##########                      Grid_es_energy:           -0.959793
##########           Internal_energy_repulsive:           13.887360

@<TRIPOS>MOLECULE
ZINC001085817863
 50 52 1 0 0
SMALL
USER_CHARGES


@<TRIPOS>ATOM
      1 C1         -9.3897   -1.8863   59.6309 C.3     1  ZINC001085817863   -0.1400
      2 C2         -8.1502   -1.0274   59.8892 C.3     1  ZINC001085817863   -0.0700
      3 C3         -8.5761    0.3522   60.3210 C.2     1  ZINC001085817863    0.1100
      4 C4         -8.9329    1.3767   59.4882 C.2     1  ZINC001085817863   -0.2400
      5 C5         -8.9758    1.3470   58.0165 C.2     1  ZINC001085817863    0.6000
      6 O6         -7.9502    1.1930   57.3812 O.2     1  ZINC001085817863   -0.5300
      7 N7        -10.1517    1.4902   57.3736 N.am    1  ZINC001085817863   -0.6100
      8 C8        -11.3871    1.6756   58.1388 C.3     1  ZINC001085817863    0.0800
      9 C9        -10.1944    1.4607   55.9095 C.3     1  ZINC001085817863    0.1300
     10 C10       -10.4663    0.0315   55.4360 C.3     1  ZINC001085817863    0.0100
     11 H11        -9.6552   -0.6548   55.6796 H       1  ZINC001085817863    0.0800
     12 C12       -11.8522   -0.4927   55.8376 C.3     1  ZINC001085817863   -0.1400
     13 C13       -11.8307   -1.1199   54.4366 C.3     1  ZINC001085817863    0.0000
     14 N14       -10.9009   -0.0486   54.0289 N.3     1  ZINC001085817863   -0.4400
     15 C15        -9.8296   -0.5782   53.1747 C.3     1  ZINC001085817863    0.0700
     16 C16        -9.0503    0.5658   52.5788 C.ar    1  ZINC001085817863   -0.1300
     17 C17        -7.6719    0.4865   52.4537 C.ar    1  ZINC001085817863   -0.0700
     18 C18        -6.9966    1.5631   51.8992 C.ar    1  ZINC001085817863   -0.1700
     19 C19        -7.7146    2.6714   51.4925 C.ar    1  ZINC001085817863    0.1000
     20 N20        -9.0260    2.7122   51.6269 N.ar    1  ZINC001085817863   -0.4800
     21 C21        -9.7016    1.7052   52.1448 C.ar    1  ZINC001085817863    0.1200
     22 C22        -9.2650    2.5109   60.3571 C.2     1  ZINC001085817863   -0.1900
     23 C23        -9.0846    2.0853   61.6200 C.2     1  ZINC001085817863   -0.0200
     24 N24        -8.6756    0.7839   61.5927 N.pl3   1  ZINC001085817863   -0.4400
     25 C25        -8.3774   -0.0250   62.7771 C.3     1  ZINC001085817863    0.0600
     26 H26        -9.0818   -2.8842   59.3185 H       1  ZINC001085817863    0.0600
     27 H27        -9.9793   -1.9576   60.5449 H       1  ZINC001085817863    0.0500
     28 H28        -9.9914   -1.4292   58.8453 H       1  ZINC001085817863    0.0600
     29 H29        -7.5487   -1.4845   60.6748 H       1  ZINC001085817863    0.0600
     30 H30        -7.5607   -0.9562   58.9751 H       1  ZINC001085817863    0.1100
     31 H31       -11.2972    2.5635   58.7646 H       1  ZINC001085817863    0.0700
     32 H32       -12.2248    1.7982   57.4523 H       1  ZINC001085817863    0.0700
     33 H33       -11.5585    0.8029   58.7690 H       1  ZINC001085817863    0.0600
     34 H34       -10.9887    2.1180   55.5558 H       1  ZINC001085817863    0.0800
     35 H35        -9.2380    1.7996   55.5112 H       1  ZINC001085817863    0.1000
     36 H36       -11.8365   -1.2176   56.6514 H       1  ZINC001085817863    0.0800
     37 H37       -12.6037    0.2863   55.9664 H       1  ZINC001085817863    0.1000
     38 H38       -11.3838   -2.1138   54.4126 H       1  ZINC001085817863    0.0700
     39 H39       -12.7933   -1.0774   53.9271 H       1  ZINC001085817863    0.0800
     40 H40        -9.1626   -1.2001   53.7718 H       1  ZINC001085817863    0.0900
     41 H41       -10.2652   -1.1768   52.3746 H       1  ZINC001085817863    0.0500
     42 H42        -7.1369   -0.3928   52.7808 H       1  ZINC001085817863    0.1300
     43 H43        -5.9227    1.5359   51.7868 H       1  ZINC001085817863    0.1300
     44 H44        -7.1960    3.5142   51.0599 H       1  ZINC001085817863    0.1600
     45 H45       -10.7751    1.7749   52.2389 H       1  ZINC001085817863    0.1500
     46 H46        -9.5894    3.4925   60.0448 H       1  ZINC001085817863    0.1600
     47 H47        -9.2418    2.6758   62.5105 H       1  ZINC001085817863    0.1600
     48 H48        -9.2831   -0.5339   63.1070 H       1  ZINC001085817863    0.0800
     49 H49        -7.6151   -0.7639   62.5299 H       1  ZINC001085817863    0.0900
     50 H50        -8.0121    0.6208   63.5755 H       1  ZINC001085817863    0.0900
@<TRIPOS>BOND
     1     1     2    1
     2     1    26    1
     3     1    27    1
     4     1    28    1
     5     2     3    1
     6     2    29    1
     7     2    30    1
     8     3    24    1
     9     3     4    2
    10     4     5    1
    11     4    22    1
    12     5     6    2
    13     5     7   am
    14     7     8    1
    15     7     9    1
    16     8    31    1
    17     8    32    1
    18     8    33    1
    19     9    10    1
    20     9    34    1
    21     9    35    1
    22    10    11    1
    23    10    14    1
    24    10    12    1
    25    12    13    1
    26    12    36    1
    27    12    37    1
    28    13    14    1
    29    13    38    1
    30    13    39    1
    31    14    15    1
    32    15    16    1
    33    15    40    1
    34    15    41    1
    35    16    21   ar
    36    16    17   ar
    37    17    18   ar
    38    17    42    1
    39    18    19   ar
    40    18    43    1
    41    19    20   ar
    42    19    44    1
    43    20    21   ar
    44    21    45    1
    45    22    23    2
    46    22    46    1
    47    23    24    1
    48    23    47    1
    49    24    25    1
    50    25    48    1
    51    25    49    1
    52    25    50    1
@<TRIPOS>SUBSTRUCTURE
     1 ZINC001085817863        1 TEMP              0 ****  ****    0 ROOT


##########                                Name:    ZINC000518242403
##########                DOCK_Rotatable_Bonds:                   6
##########                         Heavy_Atoms:                  27
##########                    Molecular_Weight:             370.405
##########                DOCK_Rotatable_Bonds:                   6
##########                       Formal_Charge:          -0.0200004
##########                     HBond_Acceptors:                   7
##########                        HBond_Donors:                   1
##########                         Heavy_Atoms:                  27
##########                          Grid_Score:          -27.465986
##########                     Grid_vdw_energy:          -27.347666
##########                      Grid_es_energy:           -0.118320
##########           Internal_energy_repulsive:           17.159712

@<TRIPOS>MOLECULE
ZINC000518242403
 49 52 1 0 0
SMALL
USER_CHARGES


@<TRIPOS>ATOM
      1 C1         -8.2868   -0.5129   61.1926 C.3     1  ZINC000518242403   -0.1800
      2 C2         -8.3954   -0.5638   59.6674 C.3     1  ZINC000518242403    0.1000
      3 N3         -9.7265   -0.1100   59.2571 N.am    1  ZINC000518242403   -0.6200
      4 C4         -9.9659    1.3101   58.9887 C.3     1  ZINC000518242403    0.1500
      5 C5         -9.7472    1.5919   57.5009 C.3     1  ZINC000518242403    0.0300
      6 H6        -10.0491    2.6140   57.2722 H       1  ZINC000518242403    0.0900
      7 C7         -8.2655    1.3994   57.1501 C.3     1  ZINC000518242403    0.0300
      8 O8         -8.0989    1.6569   55.7516 O.3     1  ZINC000518242403   -0.3000
      9 C9         -9.0013    1.0800   54.9119 C.ar    1  ZINC000518242403    0.0500
     10 C10        -8.7061    0.9791   53.5608 C.ar    1  ZINC000518242403   -0.1100
     11 C11        -9.6141    0.3986   52.6950 C.ar    1  ZINC000518242403   -0.1200
     12 C12       -10.8181   -0.0828   53.1733 C.ar    1  ZINC000518242403   -0.1200
     13 C13       -11.1180    0.0132   54.5194 C.ar    1  ZINC000518242403   -0.1100
     14 C14       -10.2112    0.5933   55.3935 C.ar    1  ZINC000518242403    0.0500
     15 O15       -10.5175    0.6741   56.7173 O.3     1  ZINC000518242403   -0.3000
     16 C16       -10.7309   -0.9992   59.1264 C.2     1  ZINC000518242403    0.7100
     17 O17       -10.5325   -2.1778   59.3506 O.2     1  ZINC000518242403   -0.5700
     18 N18       -11.9551   -0.5821   58.7473 N.am    1  ZINC000518242403   -0.6800
     19 C19       -12.9994   -1.5066   58.6115 C.ar    1  ZINC000518242403    0.1700
     20 C20       -13.0578   -2.3285   57.4946 C.ar    1  ZINC000518242403   -0.1000
     21 C21       -14.0900   -3.2424   57.3610 C.ar    1  ZINC000518242403    0.0500
     22 C22       -15.0677   -3.3345   58.3487 C.ar    1  ZINC000518242403    0.0200
     23 C23       -15.0061   -2.5117   59.4617 C.ar    1  ZINC000518242403   -0.0800
     24 C24       -13.9726   -1.6045   59.5969 C.ar    1  ZINC000518242403   -0.1000
     25 C25       -13.9089   -0.7111   60.8089 C.3     1  ZINC000518242403   -0.1100
     26 O26       -15.9639   -4.2995   57.9861 O.3     1  ZINC000518242403   -0.3100
     27 C27       -15.7529   -4.5102   56.5775 C.3     1  ZINC000518242403    0.2100
     28 O28       -14.3731   -4.1490   56.3806 O.3     1  ZINC000518242403   -0.3100
     29 H29        -8.4432    0.5105   61.5340 H       1  ZINC000518242403    0.0600
     30 H30        -9.0436   -1.1623   61.6326 H       1  ZINC000518242403    0.0600
     31 H31        -7.2964   -0.8504   61.4979 H       1  ZINC000518242403    0.0700
     32 H32        -7.6385    0.0857   59.2275 H       1  ZINC000518242403    0.1000
     33 H33        -8.2390   -1.5870   59.3259 H       1  ZINC000518242403    0.0700
     34 H34       -10.9909    1.5633   59.2596 H       1  ZINC000518242403    0.1100
     35 H35        -9.2748    1.9128   59.5781 H       1  ZINC000518242403    0.0900
     36 H36        -7.6576    2.0962   57.7272 H       1  ZINC000518242403    0.1300
     37 H37        -7.9649    0.3759   57.3739 H       1  ZINC000518242403    0.0800
     38 H38        -7.7660    1.3547   53.1845 H       1  ZINC000518242403    0.1300
     39 H39        -9.3821    0.3209   51.6431 H       1  ZINC000518242403    0.1300
     40 H40       -11.5260   -0.5345   52.4943 H       1  ZINC000518242403    0.1300
     41 H41       -12.0595   -0.3636   54.8906 H       1  ZINC000518242403    0.1300
     42 H42       -12.1133    0.3580   58.5685 H       1  ZINC000518242403    0.4100
     43 H43       -12.2989   -2.2553   56.7298 H       1  ZINC000518242403    0.1500
     44 H44       -15.7642   -2.5832   60.2275 H       1  ZINC000518242403    0.1400
     45 H45       -13.3360   -1.2044   61.5941 H       1  ZINC000518242403    0.0800
     46 H46       -13.4257    0.2289   60.5424 H       1  ZINC000518242403    0.0700
     47 H47       -14.9190   -0.5117   61.1667 H       1  ZINC000518242403    0.0800
     48 H48       -15.9157   -5.5563   56.3181 H       1  ZINC000518242403    0.1300
     49 H49       -16.4056   -3.8632   55.9915 H       1  ZINC000518242403    0.0900
@<TRIPOS>BOND
     1     1     2    1
     2     1    29    1
     3     1    30    1
     4     1    31    1
     5     2     3    1
     6     2    32    1
     7     2    33    1
     8     3     4    1
     9     3    16   am
    10     4     5    1
    11     4    34    1
    12     4    35    1
    13     5     6    1
    14     5    15    1
    15     5     7    1
    16     7     8    1
    17     7    36    1
    18     7    37    1
    19     8     9    1
    20     9    14   ar
    21     9    10   ar
    22    10    11   ar
    23    10    38    1
    24    11    12   ar
    25    11    39    1
    26    12    13   ar
    27    12    40    1
    28    13    14   ar
    29    13    41    1
    30    14    15    1
    31    16    17    2
    32    16    18   am
    33    18    19    1
    34    18    42    1
    35    19    24   ar
    36    19    20   ar
    37    20    21   ar
    38    20    43    1
    39    21    28    1
    40    21    22   ar
    41    22    23   ar
    42    22    26    1
    43    23    24   ar
    44    23    44    1
    45    24    25    1
    46    25    45    1
    47    25    46    1
    48    25    47    1
    49    26    27    1
    50    27    28    1
    51    27    48    1
    52    27    49    1
@<TRIPOS>SUBSTRUCTURE
     1 ZINC000518242403        1 TEMP              0 ****  ****    0 ROOT


##########                                Name:    ZINC001300804061
##########                DOCK_Rotatable_Bonds:                   5
##########                         Heavy_Atoms:                  27
##########                    Molecular_Weight:              390.55
##########                DOCK_Rotatable_Bonds:                   5
##########                       Formal_Charge:                0.01
##########                     HBond_Acceptors:                   7
##########                        HBond_Donors:                   0
##########                         Heavy_Atoms:                  27
##########                          Grid_Score:          -27.462191
##########                     Grid_vdw_energy:          -27.518169
##########                      Grid_es_energy:            0.055979
##########           Internal_energy_repulsive:           13.127790

@<TRIPOS>MOLECULE
ZINC001300804061
 57 60 1 0 0
SMALL
USER_CHARGES


@<TRIPOS>ATOM
      1 C1        -13.5291    3.4960   51.7141 C.3     1  ZINC001300804061    0.0300
      2 O2        -12.9977    2.1974   51.4430 O.3     1  ZINC001300804061   -0.3800
      3 C3        -12.1178    1.7064   52.4563 C.3     1  ZINC001300804061    0.1000
      4 H4        -12.0599    2.4296   53.2697 H       1  ZINC001300804061    0.0700
      5 C5        -10.7237    1.4925   51.8625 C.3     1  ZINC001300804061    0.0500
      6 N6         -9.8243    0.9679   52.8981 N.3     1  ZINC001300804061   -0.4600
      7 C7         -8.5237    0.8857   52.4306 C.2     1  ZINC001300804061    0.3600
      8 N8         -7.9810   -0.1399   51.8155 N.2     1  ZINC001300804061   -0.3000
      9 N9         -6.7580    0.1189   51.5177 N.2     1  ZINC001300804061   -0.2500
     10 C10        -6.4440    1.3291   51.9255 C.2     1  ZINC001300804061    0.2600
     11 C11        -5.1402    1.9935   51.7724 C.2     1  ZINC001300804061    0.0400
     12 C12        -4.4866    2.7041   52.7339 C.2     1  ZINC001300804061   -0.1300
     13 C13        -3.2850    3.1577   52.1560 C.2     1  ZINC001300804061   -0.2100
     14 C14        -3.2625    2.7081   50.8856 C.2     1  ZINC001300804061    0.0100
     15 C15        -2.1609    2.9534   49.8868 C.3     1  ZINC001300804061   -0.0800
     16 O16        -4.3815    2.0005   50.6586 O.3     1  ZINC001300804061   -0.1700
     17 N17        -7.5690    1.8586   52.5181 N.pl3   1  ZINC001300804061   -0.4600
     18 C18        -7.7096    3.1852   53.1235 C.3     1  ZINC001300804061    0.1200
     19 C19        -8.1407    3.0363   54.5840 C.3     1  ZINC001300804061   -0.1000
     20 H20        -9.1160    2.5513   54.6257 H       1  ZINC001300804061    0.0900
     21 C21        -8.2332    4.4164   55.2281 C.3     1  ZINC001300804061   -0.1200
     22 C22        -8.9117    4.3312   56.5921 C.3     1  ZINC001300804061   -0.1200
     23 C23        -7.9851    3.6377   57.5942 C.3     1  ZINC001300804061   -0.0800
     24 S24        -7.6902    1.9326   57.0381 S.3     1  ZINC001300804061   -0.2600
     25 C25        -7.1150    2.1805   55.3319 C.3     1  ZINC001300804061   -0.0700
     26 C26       -10.2884   -0.3338   53.3945 C.3     1  ZINC001300804061    0.0600
     27 C27       -11.6695   -0.1745   54.0340 C.3     1  ZINC001300804061   -0.1100
     28 C28       -12.6492    0.3745   52.9932 C.3     1  ZINC001300804061   -0.0900
     29 H29       -12.7446   -0.3362   52.1722 H       1  ZINC001300804061    0.0800
     30 C30       -14.0172    0.5915   53.6431 C.3     1  ZINC001300804061   -0.1400
     31 H31       -14.0942    3.4701   52.6458 H       1  ZINC001300804061    0.0400
     32 H32       -12.7117    4.2113   51.8045 H       1  ZINC001300804061    0.0400
     33 H33       -14.1867    3.7969   50.8986 H       1  ZINC001300804061    0.0900
     34 H34       -10.7846    0.7801   51.0397 H       1  ZINC001300804061    0.0700
     35 H35       -10.3368    2.4421   51.4926 H       1  ZINC001300804061    0.0800
     36 H36        -4.8247    2.8850   53.7435 H       1  ZINC001300804061    0.1600
     37 H37        -2.5251    3.7534   52.6398 H       1  ZINC001300804061    0.1600
     38 H38        -1.4218    2.1553   49.9578 H       1  ZINC001300804061    0.0900
     39 H39        -2.5800    2.9720   48.8808 H       1  ZINC001300804061    0.0800
     40 H40        -1.6839    3.9102   50.0995 H       1  ZINC001300804061    0.0900
     41 H41        -6.7545    3.7084   53.0782 H       1  ZINC001300804061    0.1100
     42 H42        -8.4624    3.7552   52.5788 H       1  ZINC001300804061    0.1000
     43 H43        -7.2295    4.8230   55.3511 H       1  ZINC001300804061    0.0700
     44 H44        -8.8104    5.0766   54.5807 H       1  ZINC001300804061    0.0800
     45 H45        -9.1401    5.3365   56.9461 H       1  ZINC001300804061    0.0800
     46 H46        -9.8370    3.7624   56.5011 H       1  ZINC001300804061    0.0800
     47 H47        -7.0375    4.1737   57.6469 H       1  ZINC001300804061    0.0800
     48 H48        -8.4549    3.6249   58.5777 H       1  ZINC001300804061    0.1100
     49 H49        -7.0167    1.2149   54.8358 H       1  ZINC001300804061    0.1000
     50 H50        -6.1505    2.6881   55.3417 H       1  ZINC001300804061    0.0900
     51 H51       -10.3514   -1.0376   52.5646 H       1  ZINC001300804061    0.0600
     52 H52        -9.5854   -0.7107   54.1376 H       1  ZINC001300804061    0.0800
     53 H53       -12.0204   -1.1437   54.3885 H       1  ZINC001300804061    0.0800
     54 H54       -11.6045    0.5185   54.8728 H       1  ZINC001300804061    0.0800
     55 H55       -13.9213    1.3040   54.4623 H       1  ZINC001300804061    0.0500
     56 H56       -14.7139    0.9823   52.9014 H       1  ZINC001300804061    0.0600
     57 H57       -14.3911   -0.3571   54.0283 H       1  ZINC001300804061    0.0600
@<TRIPOS>BOND
     1     1     2    1
     2     1    31    1
     3     1    32    1
     4     1    33    1
     5     2     3    1
     6     3     4    1
     7     3    28    1
     8     3     5    1
     9     5     6    1
    10     5    34    1
    11     5    35    1
    12     6     7    1
    13     6    26    1
    14     7    17    1
    15     7     8    2
    16     8     9    1
    17     9    10    2
    18    10    11    1
    19    10    17    1
    20    11    16    1
    21    11    12    2
    22    12    13    1
    23    12    36    1
    24    13    14    2
    25    13    37    1
    26    14    15    1
    27    14    16    1
    28    15    38    1
    29    15    39    1
    30    15    40    1
    31    17    18    1
    32    18    19    1
    33    18    41    1
    34    18    42    1
    35    19    20    1
    36    19    25    1
    37    19    21    1
    38    21    22    1
    39    21    43    1
    40    21    44    1
    41    22    23    1
    42    22    45    1
    43    22    46    1
    44    23    24    1
    45    23    47    1
    46    23    48    1
    47    24    25    1
    48    25    49    1
    49    25    50    1
    50    26    27    1
    51    26    51    1
    52    26    52    1
    53    27    28    1
    54    27    53    1
    55    27    54    1
    56    28    29    1
    57    28    30    1
    58    30    55    1
    59    30    56    1
    60    30    57    1
@<TRIPOS>SUBSTRUCTURE
     1 ZINC001300804061        1 TEMP              0 ****  ****    0 ROOT


##########                                Name:    ZINC000494558165
##########                DOCK_Rotatable_Bonds:                  11
##########                         Heavy_Atoms:                  28
##########                    Molecular_Weight:             409.506
##########                DOCK_Rotatable_Bonds:                  11
##########                       Formal_Charge:        -6.55651e-07
##########                     HBond_Acceptors:                   9
##########                        HBond_Donors:                   3
##########                         Heavy_Atoms:                  28
##########                          Grid_Score:          -27.455265
##########                     Grid_vdw_energy:          -26.746655
##########                      Grid_es_energy:           -0.708611
##########           Internal_energy_repulsive:           30.646639

@<TRIPOS>MOLECULE
ZINC000494558165
 55 57 1 0 0
SMALL
USER_CHARGES


@<TRIPOS>ATOM
      1 O1        -10.7670    1.7844   57.0174 O.2     1  ZINC000494558165   -0.4400
      2 C2         -9.7803    1.2369   57.4606 C.2     1  ZINC000494558165    0.5100
      3 C3         -9.8691    0.4426   58.7382 C.3     1  ZINC000494558165    0.0300
      4 N4        -10.9482   -0.5477   58.6251 N.3     1  ZINC000494558165   -0.5000
      5 C5        -10.6620   -1.5190   57.5609 C.3     1  ZINC000494558165    0.0500
      6 C6        -11.9745   -1.9766   56.9216 C.3     1  ZINC000494558165   -0.1100
      7 C7        -12.0965   -1.3742   55.5205 C.3     1  ZINC000494558165    0.0800
      8 O8        -11.5554   -2.2852   54.5616 O.3     1  ZINC000494558165   -0.5700
      9 C9        -11.1776   -1.2250   59.9084 C.3     1  ZINC000494558165    0.1200
     10 H10       -11.1416   -2.3064   59.7763 H       1  ZINC000494558165    0.1000
     11 C11       -12.5388   -0.8028   60.5009 C.3     1  ZINC000494558165   -0.1200
     12 C12       -12.1525    0.3886   61.4030 C.3     1  ZINC000494558165   -0.0900
     13 C13       -10.7086    0.1438   61.7856 C.ar    1  ZINC000494558165   -0.0900
     14 C14        -9.9453    0.6891   62.8039 C.ar    1  ZINC000494558165   -0.1100
     15 C15        -8.6266    0.3097   62.9639 C.ar    1  ZINC000494558165   -0.1100
     16 C16        -8.0666   -0.6174   62.1054 C.ar    1  ZINC000494558165   -0.1200
     17 C17        -8.8266   -1.1627   61.0887 C.ar    1  ZINC000494558165   -0.1000
     18 C18       -10.1467   -0.7855   60.9259 C.ar    1  ZINC000494558165   -0.1300
     19 N19        -8.6053    1.3339   56.8076 N.am    1  ZINC000494558165   -0.6900
     20 C20        -8.5260    2.0443   55.6650 C.2     1  ZINC000494558165    0.7000
     21 O21        -9.5137    2.5985   55.2241 O.2     1  ZINC000494558165   -0.5200
     22 N22        -7.3513    2.1399   55.0111 N.am    1  ZINC000494558165   -0.7300
     23 C23        -7.2646    2.9135   53.7701 C.3     1  ZINC000494558165    0.1700
     24 H24        -8.0866    3.6280   53.7255 H       1  ZINC000494558165    0.1200
     25 C25        -5.9227    3.6651   53.7215 C.3     1  ZINC000494558165   -0.1400
     26 C26        -5.7551    4.1803   52.2688 C.3     1  ZINC000494558165   -0.5800
     27 S27        -6.3077    2.7458   51.2707 S.o2    1  ZINC000494558165    2.4000
     28 O28        -7.1390    3.2009   50.2120 O.2     1  ZINC000494558165   -0.9300
     29 O29        -5.1925    1.9121   50.9866 O.2     1  ZINC000494558165   -0.9300
     30 C30        -7.3390    1.9616   52.5597 C.3     1  ZINC000494558165   -0.6200
     31 H31        -8.9230   -0.0694   58.9142 H       1  ZINC000494558165    0.0700
     32 H32       -10.0786    1.1149   59.5702 H       1  ZINC000494558165    0.1200
     33 H33       -10.0319   -1.0530   56.8034 H       1  ZINC000494558165    0.0900
     34 H34       -10.1446   -2.3799   57.9843 H       1  ZINC000494558165    0.0400
     35 H35       -11.9849   -3.0643   56.8516 H       1  ZINC000494558165    0.0700
     36 H36       -12.8124   -1.6439   57.5343 H       1  ZINC000494558165    0.0800
     37 H37       -13.1468   -1.1901   55.2943 H       1  ZINC000494558165    0.0500
     38 H38       -11.5458   -0.4344   55.4799 H       1  ZINC000494558165    0.0400
     39 H39       -11.6760   -2.0073   53.6433 H       1  ZINC000494558165    0.3800
     40 H40       -13.2228   -0.4865   59.7134 H       1  ZINC000494558165    0.0900
     41 H41       -12.9720   -1.6107   61.0905 H       1  ZINC000494558165    0.0800
     42 H42       -12.2444    1.3249   60.8528 H       1  ZINC000494558165    0.0800
     43 H43       -12.7814    0.4086   62.2929 H       1  ZINC000494558165    0.0800
     44 H44       -10.3821    1.4138   63.4750 H       1  ZINC000494558165    0.1200
     45 H45        -8.0341    0.7367   63.7595 H       1  ZINC000494558165    0.1300
     46 H46        -7.0358   -0.9148   62.2289 H       1  ZINC000494558165    0.1200
     47 H47        -8.3882   -1.8867   60.4179 H       1  ZINC000494558165    0.1200
     48 H48        -7.8167    0.8926   57.1600 H       1  ZINC000494558165    0.4100
     49 H49        -6.5633    1.6966   55.3624 H       1  ZINC000494558165    0.4000
     50 H50        -5.9401    4.5053   54.4159 H       1  ZINC000494558165    0.1100
     51 H51        -5.1065    2.9883   53.9742 H       1  ZINC000494558165    0.0900
     52 H52        -6.3933    5.0455   52.0891 H       1  ZINC000494558165    0.1400
     53 H53        -4.7119    4.4177   52.0605 H       1  ZINC000494558165    0.1400
     54 H54        -6.9381    0.9824   52.8213 H       1  ZINC000494558165    0.1500
     55 H55        -8.3694    1.8705   52.2163 H       1  ZINC000494558165    0.1500
@<TRIPOS>BOND
     1     1     2    2
     2     2     3    1
     3     2    19   am
     4     3     4    1
     5     3    31    1
     6     3    32    1
     7     4     5    1
     8     4     9    1
     9     5     6    1
    10     5    33    1
    11     5    34    1
    12     6     7    1
    13     6    35    1
    14     6    36    1
    15     7     8    1
    16     7    37    1
    17     7    38    1
    18     8    39    1
    19     9    10    1
    20     9    18    1
    21     9    11    1
    22    11    12    1
    23    11    40    1
    24    11    41    1
    25    12    13    1
    26    12    42    1
    27    12    43    1
    28    13    18   ar
    29    13    14   ar
    30    14    15   ar
    31    14    44    1
    32    15    16   ar
    33    15    45    1
    34    16    17   ar
    35    16    46    1
    36    17    18   ar
    37    17    47    1
    38    19    20   am
    39    19    48    1
    40    20    21    2
    41    20    22   am
    42    22    23    1
    43    22    49    1
    44    23    24    1
    45    23    30    1
    46    23    25    1
    47    25    26    1
    48    25    50    1
    49    25    51    1
    50    26    27    1
    51    26    52    1
    52    26    53    1
    53    27    28    2
    54    27    29    2
    55    27    30    1
    56    30    54    1
    57    30    55    1
@<TRIPOS>SUBSTRUCTURE
     1 ZINC000494558165        1 TEMP              0 ****  ****    0 ROOT


##########                                Name:    ZINC000435292384
##########                DOCK_Rotatable_Bonds:                   6
##########                         Heavy_Atoms:                  22
##########                    Molecular_Weight:             326.503
##########                DOCK_Rotatable_Bonds:                   6
##########                       Formal_Charge:         -0.00999993
##########                     HBond_Acceptors:                   5
##########                        HBond_Donors:                   0
##########                         Heavy_Atoms:                  22
##########                          Grid_Score:          -27.444786
##########                     Grid_vdw_energy:          -27.147491
##########                      Grid_es_energy:           -0.297295
##########           Internal_energy_repulsive:           23.361631

@<TRIPOS>MOLECULE
ZINC000435292384
 52 53 1 0 0
SMALL
USER_CHARGES


@<TRIPOS>ATOM
      1 C1         -4.0279    3.0761   55.9111 C.3     1  ZINC000435292384   -0.1500
      2 C2         -4.4343    3.3941   54.4708 C.3     1  ZINC000435292384   -0.1200
      3 C3         -3.2468    3.1445   53.5389 C.3     1  ZINC000435292384   -0.1400
      4 C4         -3.6061    3.5977   52.1223 C.3     1  ZINC000435292384    0.1600
      5 H5         -3.9650    4.6265   52.1502 H       1  ZINC000435292384    0.0900
      6 C6         -4.7018    2.6904   51.5592 C.3     1  ZINC000435292384   -0.1700
      7 N7         -2.4187    3.5175   51.2680 N.am    1  ZINC000435292384   -0.6100
      8 C8         -2.0316    2.3297   50.4976 C.3     1  ZINC000435292384    0.1200
      9 C9         -1.0157    2.8325   49.4481 C.3     1  ZINC000435292384   -0.1300
     10 H10        -1.5150    3.0899   48.5140 H       1  ZINC000435292384    0.1100
     11 C11         0.0676    1.8114   49.2137 C.2     1  ZINC000435292384    0.5200
     12 O12         0.2840    0.9553   50.0450 O.2     1  ZINC000435292384   -0.5200
     13 N13         0.7960    1.8497   48.0804 N.am    1  ZINC000435292384   -0.6000
     14 C14         0.5074    2.9046   47.0891 C.3     1  ZINC000435292384    0.1000
     15 C15         1.7923    3.5159   46.5016 C.3     1  ZINC000435292384   -0.1300
     16 C16         2.8239    3.6971   47.5877 C.3     1  ZINC000435292384   -0.1100
     17 C17         3.7079    2.4556   47.6576 C.3     1  ZINC000435292384   -0.1200
     18 C18         3.1616    1.3684   48.4840 C.3     1  ZINC000435292384   -0.0700
     19 H19         2.9857    1.7370   49.4947 H       1  ZINC000435292384    0.0900
     20 S20         4.3529    0.0017   48.5423 S.3     1  ZINC000435292384   -0.2500
     21 C21         4.0045   -0.7754   50.1439 C.3     1  ZINC000435292384   -0.1200
     22 C22         1.8317    0.8594   47.8885 C.3     1  ZINC000435292384    0.1400
     23 C23        -0.4479    4.0945   50.1379 C.3     1  ZINC000435292384   -0.1400
     24 C24        -1.5469    4.5240   51.0846 C.2     1  ZINC000435292384    0.5200
     25 O25        -1.6260    5.6153   51.6077 O.2     1  ZINC000435292384   -0.5200
     26 H26        -4.8738    3.2540   56.5751 H       1  ZINC000435292384    0.0500
     27 H27        -3.7246    2.0315   55.9809 H       1  ZINC000435292384    0.0500
     28 H28        -3.1956    3.7164   56.2037 H       1  ZINC000435292384    0.0500
     29 H29        -5.2666    2.7539   54.1783 H       1  ZINC000435292384    0.0600
     30 H30        -4.7375    4.4388   54.4011 H       1  ZINC000435292384    0.0600
     31 H31        -2.3829    3.7074   53.8922 H       1  ZINC000435292384    0.0800
     32 H32        -3.0088    2.0808   53.5306 H       1  ZINC000435292384    0.0800
     33 H33        -4.3429    1.6616   51.5314 H       1  ZINC000435292384    0.0700
     34 H34        -5.5853    2.7500   52.1948 H       1  ZINC000435292384    0.0700
     35 H35        -4.9578    3.0132   50.5501 H       1  ZINC000435292384    0.0600
     36 H36        -1.5653    1.5921   51.1507 H       1  ZINC000435292384    0.0900
     37 H37        -2.9030    1.9000   50.0037 H       1  ZINC000435292384    0.0800
     38 H38        -0.0835    2.4770   46.2792 H       1  ZINC000435292384    0.0700
     39 H39        -0.0719    3.6930   47.5697 H       1  ZINC000435292384    0.0900
     40 H40         2.1894    2.8529   45.7329 H       1  ZINC000435292384    0.0700
     41 H41         1.5615    4.4841   46.0572 H       1  ZINC000435292384    0.0800
     42 H42         3.4384    4.5691   47.3638 H       1  ZINC000435292384    0.0700
     43 H43         2.3227    3.8410   48.5449 H       1  ZINC000435292384    0.0600
     44 H44         3.8570    2.0795   46.6454 H       1  ZINC000435292384    0.0800
     45 H45         4.6781    2.7439   48.0622 H       1  ZINC000435292384    0.0600
     46 H46         4.1607   -0.0493   50.9417 H       1  ZINC000435292384    0.0800
     47 H47         2.9705   -1.1199   50.1634 H       1  ZINC000435292384    0.0800
     48 H48         4.6730   -1.6241   50.2891 H       1  ZINC000435292384    0.1000
     49 H49         1.5421   -0.0664   48.3855 H       1  ZINC000435292384    0.0900
     50 H50         1.9592    0.6737   46.8219 H       1  ZINC000435292384    0.0900
     51 H51         0.4615    3.8522   50.6879 H       1  ZINC000435292384    0.1100
     52 H52        -0.2538    4.8761   49.4035 H       1  ZINC000435292384    0.1100
@<TRIPOS>BOND
     1     1     2    1
     2     1    26    1
     3     1    27    1
     4     1    28    1
     5     2     3    1
     6     2    29    1
     7     2    30    1
     8     3     4    1
     9     3    31    1
    10     3    32    1
    11     4     5    1
    12     4     6    1
    13     4     7    1
    14     6    33    1
    15     6    34    1
    16     6    35    1
    17     7    24   am
    18     7     8    1
    19     8     9    1
    20     8    36    1
    21     8    37    1
    22     9    10    1
    23     9    11    1
    24     9    23    1
    25    11    12    2
    26    11    13   am
    27    13    22    1
    28    13    14    1
    29    14    15    1
    30    14    38    1
    31    14    39    1
    32    15    16    1
    33    15    40    1
    34    15    41    1
    35    16    17    1
    36    16    42    1
    37    16    43    1
    38    17    18    1
    39    17    44    1
    40    17    45    1
    41    18    19    1
    42    18    20    1
    43    18    22    1
    44    20    21    1
    45    21    46    1
    46    21    47    1
    47    21    48    1
    48    22    49    1
    49    22    50    1
    50    23    24    1
    51    23    51    1
    52    23    52    1
    53    24    25    2
@<TRIPOS>SUBSTRUCTURE
     1 ZINC000435292384        1 TEMP              0 ****  ****    0 ROOT


##########                                Name:    ZINC000979274057
##########                DOCK_Rotatable_Bonds:                   6
##########                         Heavy_Atoms:                  24
##########                    Molecular_Weight:              330.39
##########                DOCK_Rotatable_Bonds:                   6
##########                       Formal_Charge:          0.00999946
##########                     HBond_Acceptors:                   8
##########                        HBond_Donors:                   1
##########                         Heavy_Atoms:                  24
##########                          Grid_Score:          -27.435951
##########                     Grid_vdw_energy:          -25.981155
##########                      Grid_es_energy:           -1.454796
##########           Internal_energy_repulsive:            8.171387

@<TRIPOS>MOLECULE
ZINC000979274057
 46 48 1 0 0
SMALL
USER_CHARGES


@<TRIPOS>ATOM
      1 C1        -11.4175   -0.3452   53.0816 C.3     1  ZINC000979274057   -0.1400
      2 C2        -10.8610    0.9133   52.4129 C.3     1  ZINC000979274057    0.1000
      3 H3        -11.3077    1.7958   52.8708 H       1  ZINC000979274057    0.0600
      4 N4        -11.1826    0.8894   50.9797 N.3     1  ZINC000979274057   -0.6700
      5 C5        -12.3570    1.7229   50.6898 C.3     1  ZINC000979274057    0.1300
      6 C6        -12.7549    1.5458   49.2471 C.ar    1  ZINC000979274057    0.3200
      7 N7        -12.3688    2.4414   48.3606 N.ar    1  ZINC000979274057   -0.5200
      8 C8        -12.6991    2.3190   47.0851 C.ar    1  ZINC000979274057    0.1500
      9 C9        -13.4608    1.2315   46.6873 C.ar    1  ZINC000979274057   -0.2300
     10 C10       -13.8478    0.3110   47.6484 C.ar    1  ZINC000979274057    0.1500
     11 N11       -13.4751    0.4965   48.9045 N.ar    1  ZINC000979274057   -0.5000
     12 C12        -9.3424    0.9580   52.5941 C.3     1  ZINC000979274057    0.0800
     13 H13        -9.0944    0.7635   53.6375 H       1  ZINC000979274057    0.0700
     14 C14        -8.8195    2.3421   52.1930 C.3     1  ZINC000979274057    0.0800
     15 N15        -7.3485    2.3012   52.1961 N.am    1  ZINC000979274057   -0.6000
     16 C16        -6.6299    3.2337   52.8521 C.2     1  ZINC000979274057    0.6100
     17 O17        -7.1966    4.1264   53.4531 O.2     1  ZINC000979274057   -0.5400
     18 C18        -5.1580    3.1719   52.8413 C.2     1  ZINC000979274057   -0.0600
     19 C19        -4.3489    3.4066   51.7684 C.2     1  ZINC000979274057    0.0400
     20 N20        -3.0742    3.2442   52.1946 N.pl3   1  ZINC000979274057   -0.4600
     21 C21        -1.8653    3.3968   51.3813 C.3     1  ZINC000979274057    0.0700
     22 C22        -3.1172    2.9148   53.5118 C.2     1  ZINC000979274057    0.1900
     23 N23        -4.3595    2.8765   53.8988 N.2     1  ZINC000979274057   -0.4600
     24 C24        -6.6852    1.2118   51.4621 C.3     1  ZINC000979274057    0.0500
     25 C25        -7.3123   -0.1172   51.8989 C.3     1  ZINC000979274057    0.0500
     26 O26        -8.7332   -0.0348   51.7652 O.3     1  ZINC000979274057   -0.3600
     27 H27       -12.4994   -0.3771   52.9524 H       1  ZINC000979274057    0.0600
     28 H28       -10.9709   -1.2278   52.6236 H       1  ZINC000979274057    0.0700
     29 H29       -11.1789   -0.3276   54.1450 H       1  ZINC000979274057    0.0600
     30 H30       -10.3894    1.1771   50.4263 H       1  ZINC000979274057    0.3500
     31 H31       -13.1834    1.4229   51.3341 H       1  ZINC000979274057    0.1000
     32 H32       -12.1142    2.7694   50.8739 H       1  ZINC000979274057    0.0600
     33 H33       -12.3798    3.0567   46.3638 H       1  ZINC000979274057    0.1700
     34 H34       -13.7462    1.1048   45.6534 H       1  ZINC000979274057    0.1500
     35 H35       -14.4420   -0.5484   47.3751 H       1  ZINC000979274057    0.1700
     36 H36        -9.1776    2.5948   51.1949 H       1  ZINC000979274057    0.0700
     37 H37        -9.1675    3.0874   52.9081 H       1  ZINC000979274057    0.1000
     38 H38        -4.6646    3.6711   50.7701 H       1  ZINC000979274057    0.1900
     39 H39        -1.5224    4.4303   51.4303 H       1  ZINC000979274057    0.0800
     40 H40        -1.0857    2.7369   51.7619 H       1  ZINC000979274057    0.0900
     41 H41        -2.0882    3.1367   50.3465 H       1  ZINC000979274057    0.0900
     42 H42        -2.2590    2.7202   54.1379 H       1  ZINC000979274057    0.2100
     43 H43        -6.8285    1.3506   50.3905 H       1  ZINC000979274057    0.0700
     44 H44        -5.6201    1.2087   51.6932 H       1  ZINC000979274057    0.1500
     45 H45        -6.9335   -0.9227   51.2695 H       1  ZINC000979274057    0.1100
     46 H46        -7.0560   -0.3160   52.9395 H       1  ZINC000979274057    0.0500
@<TRIPOS>BOND
     1     1     2    1
     2     1    27    1
     3     1    28    1
     4     1    29    1
     5     2     3    1
     6     2     4    1
     7     2    12    1
     8     4     5    1
     9     4    30    1
    10     5     6    1
    11     5    31    1
    12     5    32    1
    13     6    11   ar
    14     6     7   ar
    15     7     8   ar
    16     8     9   ar
    17     8    33    1
    18     9    10   ar
    19     9    34    1
    20    10    11   ar
    21    10    35    1
    22    12    13    1
    23    12    26    1
    24    12    14    1
    25    14    15    1
    26    14    36    1
    27    14    37    1
    28    15    16   am
    29    15    24    1
    30    16    17    2
    31    16    18    1
    32    18    23    1
    33    18    19    2
    34    19    20    1
    35    19    38    1
    36    20    21    1
    37    20    22    1
    38    21    39    1
    39    21    40    1
    40    21    41    1
    41    22    23    2
    42    22    42    1
    43    24    25    1
    44    24    43    1
    45    24    44    1
    46    25    26    1
    47    25    45    1
    48    25    46    1
@<TRIPOS>SUBSTRUCTURE
     1 ZINC000979274057        1 TEMP              0 ****  ****    0 ROOT


##########                                Name:    ZINC000542980334
##########                DOCK_Rotatable_Bonds:                   6
##########                         Heavy_Atoms:                  27
##########                    Molecular_Weight:             404.795
##########                DOCK_Rotatable_Bonds:                   6
##########                       Formal_Charge:           0.0300001
##########                     HBond_Acceptors:                  10
##########                        HBond_Donors:                   1
##########                         Heavy_Atoms:                  27
##########                          Grid_Score:          -27.422752
##########                     Grid_vdw_energy:          -26.405411
##########                      Grid_es_energy:           -1.017341
##########           Internal_energy_repulsive:           10.709983

@<TRIPOS>MOLECULE
ZINC000542980334
 44 46 1 0 0
SMALL
USER_CHARGES


@<TRIPOS>ATOM
      1 O1         -8.3224   -0.2921   51.8691 O.2     1  ZINC000542980334   -0.5800
      2 C2         -8.8167    0.7977   52.0844 C.2     1  ZINC000542980334    0.7100
      3 N3        -10.1563    0.9289   52.1504 N.am    1  ZINC000542980334   -0.7400
      4 C4        -11.0174   -0.2405   51.9569 C.3     1  ZINC000542980334    0.1800
      5 C5        -12.3864    0.0452   52.5183 C.ar    1  ZINC000542980334   -0.1400
      6 C6        -12.6716   -0.2614   53.8376 C.ar    1  ZINC000542980334    0.1300
      7 F7        -11.7228   -0.8170   54.6227 F       1  ZINC000542980334   -0.1200
      8 C8        -13.9299    0.0021   54.3524 C.ar    1  ZINC000542980334   -0.1500
      9 C9        -14.8999    0.5708   53.5493 C.ar    1  ZINC000542980334   -0.0700
     10 C10       -14.6151    0.8770   52.2316 C.ar    1  ZINC000542980334   -0.1200
     11 C11       -13.3570    0.6193   51.7170 C.ar    1  ZINC000542980334    0.0100
     12 Cl12      -13.0002    1.0048   50.0625 Cl      1  ZINC000542980334   -0.0400
     13 N13        -8.0246    1.8735   52.2624 N.am    1  ZINC000542980334   -0.6300
     14 C14        -8.6068    3.1958   52.5292 C.3     1  ZINC000542980334    0.1100
     15 C15        -8.0474    4.1952   51.5119 C.3     1  ZINC000542980334   -0.1300
     16 C16        -6.5181    4.1611   51.5571 C.3     1  ZINC000542980334   -0.1300
     17 C17        -6.0260    2.7618   51.1804 C.3     1  ZINC000542980334    0.1400
     18 H18        -6.3855    2.5058   50.1837 H       1  ZINC000542980334    0.1100
     19 N19        -4.5612    2.7389   51.1926 N.pl3   1  ZINC000542980334   -0.3400
     20 C20        -3.7776    2.6653   52.2889 C.2     1  ZINC000542980334    0.0600
     21 C21        -2.4890    2.6690   51.8757 C.2     1  ZINC000542980334   -0.2300
     22 C22        -2.4851    2.7476   50.4792 C.2     1  ZINC000542980334   -0.0200
     23 C23        -1.2620    2.7786   49.5994 C.3     1  ZINC000542980334    0.5600
     24 F24        -1.5576    2.1822   48.3688 F       1  ZINC000542980334   -0.1700
     25 F25        -0.8700    4.1055   49.3922 F       1  ZINC000542980334   -0.1700
     26 F26        -0.2231    2.0769   50.2201 F       1  ZINC000542980334   -0.1600
     27 N27        -3.7268    2.7834   50.0684 N.2     1  ZINC000542980334   -0.2300
     28 C28        -6.5623    1.7452   52.1996 C.3     1  ZINC000542980334    0.1300
     29 H29       -10.5506    1.7977   52.3259 H       1  ZINC000542980334    0.4000
     30 H30       -11.0997   -0.4589   50.8921 H       1  ZINC000542980334    0.0900
     31 H31       -10.5855   -1.0988   52.4714 H       1  ZINC000542980334    0.0900
     32 H32       -14.1532   -0.2372   55.3817 H       1  ZINC000542980334    0.1500
     33 H33       -15.8811    0.7758   53.9511 H       1  ZINC000542980334    0.1500
     34 H34       -15.3740    1.3210   51.6046 H       1  ZINC000542980334    0.1500
     35 H35        -9.6913    3.1439   52.4322 H       1  ZINC000542980334    0.0800
     36 H36        -8.3430    3.5146   53.5376 H       1  ZINC000542980334    0.0800
     37 H37        -8.3879    3.9257   50.5120 H       1  ZINC000542980334    0.0800
     38 H38        -8.3965    5.1982   51.7574 H       1  ZINC000542980334    0.0900
     39 H39        -6.1176    4.8891   50.8515 H       1  ZINC000542980334    0.0800
     40 H40        -6.1791    4.4066   52.5635 H       1  ZINC000542980334    0.0800
     41 H41        -4.1178    2.6131   53.3125 H       1  ZINC000542980334    0.1900
     42 H42        -1.6176    2.6205   52.5118 H       1  ZINC000542980334    0.1600
     43 H43        -6.1300    1.9473   53.1796 H       1  ZINC000542980334    0.0800
     44 H44        -6.2986    0.7361   51.8827 H       1  ZINC000542980334    0.1100
@<TRIPOS>BOND
     1     1     2    2
     2     2     3   am
     3     2    13   am
     4     3     4    1
     5     3    29    1
     6     4     5    1
     7     4    30    1
     8     4    31    1
     9     5    11   ar
    10     5     6   ar
    11     6     7    1
    12     6     8   ar
    13     8     9   ar
    14     8    32    1
    15     9    10   ar
    16     9    33    1
    17    10    11   ar
    18    10    34    1
    19    11    12    1
    20    13    28    1
    21    13    14    1
    22    14    15    1
    23    14    35    1
    24    14    36    1
    25    15    16    1
    26    15    37    1
    27    15    38    1
    28    16    17    1
    29    16    39    1
    30    16    40    1
    31    17    18    1
    32    17    19    1
    33    17    28    1
    34    19    27    1
    35    19    20    1
    36    20    21    2
    37    20    41    1
    38    21    22    1
    39    21    42    1
    40    22    23    1
    41    22    27    2
    42    23    24    1
    43    23    25    1
    44    23    26    1
    45    28    43    1
    46    28    44    1
@<TRIPOS>SUBSTRUCTURE
     1 ZINC000542980334        1 TEMP              0 ****  ****    0 ROOT


##########                                Name:    ZINC000369046711
##########                DOCK_Rotatable_Bonds:                   8
##########                         Heavy_Atoms:                  26
##########                    Molecular_Weight:             367.467
##########                DOCK_Rotatable_Bonds:                   8
##########                       Formal_Charge:        -7.63685e-07
##########                     HBond_Acceptors:                   8
##########                        HBond_Donors:                   1
##########                         Heavy_Atoms:                  26
##########                          Grid_Score:          -27.392059
##########                     Grid_vdw_energy:          -27.615734
##########                      Grid_es_energy:            0.223676
##########           Internal_energy_repulsive:           63.081310

@<TRIPOS>MOLECULE
ZINC000369046711
 56 58 1 0 0
SMALL
USER_CHARGES


@<TRIPOS>ATOM
      1 C1          3.9638    1.2263   44.9272 C.3     1  ZINC000369046711   -0.1800
      2 C2          4.5035    0.5645   46.1966 C.3     1  ZINC000369046711    0.1400
      3 C3          5.8715   -0.0560   45.9062 C.3     1  ZINC000369046711   -0.1800
      4 C4          4.6440    1.6156   47.2995 C.3     1  ZINC000369046711   -0.1400
      5 O5          3.5841   -0.4722   46.6304 O.3     1  ZINC000369046711   -0.3700
      6 C6          2.3279   -0.0899   46.9279 C.2     1  ZINC000369046711    0.6500
      7 O7          1.4956   -0.9214   47.2320 O.2     1  ZINC000369046711   -0.5700
      8 N8          1.9935    1.2151   46.8882 N.am    1  ZINC000369046711   -0.7100
      9 C9          0.6270    1.6313   47.2136 C.3     1  ZINC000369046711    0.1800
     10 H10        -0.0649    0.8446   46.9129 H       1  ZINC000369046711    0.0900
     11 C11         0.2973    2.9074   46.4400 C.3     1  ZINC000369046711   -0.1300
     12 C12         1.2724    4.0020   46.8889 C.3     1  ZINC000369046711   -0.1200
     13 C13         1.0238    4.2929   48.3661 C.3     1  ZINC000369046711   -0.1200
     14 C14         1.3010    3.0565   49.2238 C.3     1  ZINC000369046711   -0.1000
     15 H15         2.3682    2.8587   49.3239 H       1  ZINC000369046711    0.0900
     16 C16         0.6163    3.3101   50.5947 C.3     1  ZINC000369046711    0.0400
     17 N17        -0.7451    2.7469   50.5059 N.3     1  ZINC000369046711   -0.5200
     18 C18        -1.7595    3.7803   50.7532 C.3     1  ZINC000369046711    0.1200
     19 C19        -3.1039    3.1281   50.9483 C.2     1  ZINC000369046711    0.2900
     20 N20        -3.9345    2.7810   49.9989 N.2     1  ZINC000369046711   -0.5400
     21 C21        -5.0256    2.2321   50.5313 C.2     1  ZINC000369046711    0.2000
     22 N22        -4.9039    2.2222   51.8327 N.2     1  ZINC000369046711   -0.3200
     23 N23        -3.6565    2.7960   52.1279 N.pl3   1  ZINC000369046711   -0.3700
     24 C24        -3.0769    3.0009   53.4577 C.3     1  ZINC000369046711    0.1000
     25 C25        -4.1958    3.2703   54.4658 C.3     1  ZINC000369046711    0.0500
     26 F26        -3.6422    3.4672   55.7354 F       1  ZINC000369046711   -0.2000
     27 C27        -0.9190    2.1422   49.1637 C.3     1  ZINC000369046711    0.0500
     28 C28         0.5180    1.8391   48.7026 C.3     1  ZINC000369046711   -0.1000
     29 H29         0.8748    0.9418   49.2081 H       1  ZINC000369046711    0.0900
     30 H30         3.8637    0.4775   44.1415 H       1  ZINC000369046711    0.0900
     31 H31         2.9892    1.6684   45.1341 H       1  ZINC000369046711    0.0600
     32 H32         4.6540    2.0046   44.6016 H       1  ZINC000369046711    0.0700
     33 H33         6.5618    0.7223   45.5807 H       1  ZINC000369046711    0.0700
     34 H34         6.2561   -0.5275   46.8107 H       1  ZINC000369046711    0.0600
     35 H35         5.7714   -0.8048   45.1205 H       1  ZINC000369046711    0.0900
     36 H36         3.6694    2.0577   47.5065 H       1  ZINC000369046711    0.0700
     37 H37         5.0285    1.1441   48.2039 H       1  ZINC000369046711    0.0700
     38 H38         5.3342    2.3938   46.9739 H       1  ZINC000369046711    0.0800
     39 H39         2.6575    1.8787   46.6443 H       1  ZINC000369046711    0.4000
     40 H40         0.4107    2.7293   45.3707 H       1  ZINC000369046711    0.0700
     41 H41        -0.7260    3.2147   46.6560 H       1  ZINC000369046711    0.0800
     42 H42         2.2979    3.6597   46.7498 H       1  ZINC000369046711    0.0600
     43 H43         1.1042    4.9060   46.3035 H       1  ZINC000369046711    0.0700
     44 H44         1.6777    5.1042   48.6861 H       1  ZINC000369046711    0.0700
     45 H45        -0.0143    4.5966   48.5012 H       1  ZINC000369046711    0.0600
     46 H46         1.1743    2.8117   51.3874 H       1  ZINC000369046711    0.0800
     47 H47         0.5641    4.3808   50.7924 H       1  ZINC000369046711    0.0800
     48 H48        -1.4948    4.3422   51.6489 H       1  ZINC000369046711    0.0800
     49 H49        -1.8043    4.4569   49.8999 H       1  ZINC000369046711    0.1000
     50 H50        -5.8734    1.8567   49.9775 H       1  ZINC000369046711    0.2200
     51 H51        -2.5265    2.1085   53.7556 H       1  ZINC000369046711    0.1200
     52 H52        -2.3988    3.8539   53.4309 H       1  ZINC000369046711    0.1100
     53 H53        -4.7468    4.1621   54.1674 H       1  ZINC000369046711    0.0900
     54 H54        -4.8733    2.4168   54.4933 H       1  ZINC000369046711    0.0800
     55 H55        -1.5016    1.2235   49.2312 H       1  ZINC000369046711    0.0900
     56 H56        -1.3960    2.8493   48.4850 H       1  ZINC000369046711    0.0600
@<TRIPOS>BOND
     1     1     2    1
     2     1    30    1
     3     1    31    1
     4     1    32    1
     5     2     3    1
     6     2     4    1
     7     2     5    1
     8     3    33    1
     9     3    34    1
    10     3    35    1
    11     4    36    1
    12     4    37    1
    13     4    38    1
    14     5     6    1
    15     6     7    2
    16     6     8   am
    17     8     9    1
    18     8    39    1
    19     9    10    1
    20     9    28    1
    21     9    11    1
    22    11    12    1
    23    11    40    1
    24    11    41    1
    25    12    13    1
    26    12    42    1
    27    12    43    1
    28    13    14    1
    29    13    44    1
    30    13    45    1
    31    14    15    1
    32    14    28    1
    33    14    16    1
    34    16    17    1
    35    16    46    1
    36    16    47    1
    37    17    18    1
    38    17    27    1
    39    18    19    1
    40    18    48    1
    41    18    49    1
    42    19    23    1
    43    19    20    2
    44    20    21    1
    45    21    22    2
    46    21    50    1
    47    22    23    1
    48    23    24    1
    49    24    25    1
    50    24    51    1
    51    24    52    1
    52    25    26    1
    53    25    53    1
    54    25    54    1
    55    27    28    1
    56    27    55    1
    57    27    56    1
    58    28    29    1
@<TRIPOS>SUBSTRUCTURE
     1 ZINC000369046711        1 TEMP              0 ****  ****    0 ROOT


##########                                Name:    ZINC000186105981
##########                DOCK_Rotatable_Bonds:                   6
##########                         Heavy_Atoms:                  26
##########                    Molecular_Weight:             396.873
##########                DOCK_Rotatable_Bonds:                   6
##########                       Formal_Charge:          -0.0400003
##########                     HBond_Acceptors:                   9
##########                        HBond_Donors:                   1
##########                         Heavy_Atoms:                  26
##########                          Grid_Score:          -27.372515
##########                     Grid_vdw_energy:          -25.715343
##########                      Grid_es_energy:           -1.657171
##########           Internal_energy_repulsive:           14.052494

@<TRIPOS>MOLECULE
ZINC000186105981
 44 46 1 0 0
SMALL
USER_CHARGES


@<TRIPOS>ATOM
      1 C1         -4.8953    3.2538   56.5646 C.3     1  ZINC000186105981   -0.1400
      2 C2         -4.2946    3.2257   55.1577 C.3     1  ZINC000186105981   -0.1100
      3 C3         -5.3560    3.6514   54.1413 C.3     1  ZINC000186105981   -0.1600
      4 C4         -3.1084    4.1897   55.0903 C.3     1  ZINC000186105981    0.1600
      5 H5         -3.4250    5.1790   55.4206 H       1  ZINC000186105981    0.1200
      6 C6         -2.6068    4.2704   53.6715 C.2     1  ZINC000186105981    0.4900
      7 O7         -2.5058    5.3482   53.1244 O.2     1  ZINC000186105981   -0.4300
      8 N8         -2.2703    3.1451   53.0106 N.am    1  ZINC000186105981   -0.6300
      9 C9         -1.8077    3.2196   51.7023 C.2     1  ZINC000186105981    0.2400
     10 N10        -2.5390    3.1651   50.6257 N.2     1  ZINC000186105981   -0.2600
     11 N11        -1.9519    3.2492   49.5128 N.2     1  ZINC000186105981   -0.2000
     12 C12        -0.6554    3.3849   49.5208 C.2     1  ZINC000186105981    0.0300
     13 C13         0.2152    3.5011   48.3320 C.ar    1  ZINC000186105981   -0.0500
     14 C14         0.8389    4.7156   48.0346 C.ar    1  ZINC000186105981    0.1300
     15 F15         0.6481    5.7886   48.8332 F       1  ZINC000186105981   -0.1200
     16 C16         1.6520    4.8162   46.9213 C.ar    1  ZINC000186105981   -0.1400
     17 C17         1.8485    3.7185   46.1034 C.ar    1  ZINC000186105981   -0.0600
     18 C18         1.2335    2.5131   46.3921 C.ar    1  ZINC000186105981   -0.1200
     19 C19         0.4232    2.3959   47.5038 C.ar    1  ZINC000186105981    0.0200
     20 Cl20       -0.3466    0.8821   47.8636 Cl      1  ZINC000186105981   -0.0100
     21 S21        -0.1258    3.4126   51.2039 S.3     1  ZINC000186105981    0.1200
     22 N22        -2.0347    3.7044   55.9609 N.am    1  ZINC000186105981   -0.6100
     23 C23        -1.7838    2.2887   56.2558 C.3     1  ZINC000186105981    0.1000
     24 C24        -0.3486    2.2344   56.8247 C.3     1  ZINC000186105981   -0.1300
     25 C25        -0.1813    3.6618   57.3952 C.3     1  ZINC000186105981   -0.1600
     26 C26        -1.1493    4.4981   56.5877 C.2     1  ZINC000186105981    0.5200
     27 O27        -1.1334    5.7090   56.5214 O.2     1  ZINC000186105981   -0.5000
     28 H28        -5.7404    2.5671   56.6125 H       1  ZINC000186105981    0.0600
     29 H29        -4.1391    2.9506   57.2886 H       1  ZINC000186105981    0.0600
     30 H30        -5.2343    4.2639   56.7948 H       1  ZINC000186105981    0.0600
     31 H31        -3.9556    2.2157   54.9275 H       1  ZINC000186105981    0.0900
     32 H32        -5.6273    4.6930   54.3138 H       1  ZINC000186105981    0.0600
     33 H33        -4.9578    3.5419   53.1326 H       1  ZINC000186105981    0.0600
     34 H34        -6.2394    3.0226   54.2535 H       1  ZINC000186105981    0.0700
     35 H35        -2.3510    2.2832   53.4482 H       1  ZINC000186105981    0.4200
     36 H36         2.1347    5.7541   46.6896 H       1  ZINC000186105981    0.1500
     37 H37         2.4849    3.8026   45.2349 H       1  ZINC000186105981    0.1500
     38 H38         1.3914    1.6603   45.7484 H       1  ZINC000186105981    0.1500
     39 H39        -2.4969    1.9255   56.9958 H       1  ZINC000186105981    0.0700
     40 H40        -1.8507    1.6959   55.3436 H       1  ZINC000186105981    0.0800
     41 H41        -0.2699    1.4871   57.6142 H       1  ZINC000186105981    0.0900
     42 H42         0.3772    2.0426   56.0344 H       1  ZINC000186105981    0.0800
     43 H43        -0.4432    3.6829   58.4530 H       1  ZINC000186105981    0.1100
     44 H44         0.8393    4.0148   57.2467 H       1  ZINC000186105981    0.1000
@<TRIPOS>BOND
     1     1     2    1
     2     1    28    1
     3     1    29    1
     4     1    30    1
     5     2     3    1
     6     2     4    1
     7     2    31    1
     8     3    32    1
     9     3    33    1
    10     3    34    1
    11     4     5    1
    12     4     6    1
    13     4    22    1
    14     6     7    2
    15     6     8   am
    16     8     9    1
    17     8    35    1
    18     9    21    1
    19     9    10    2
    20    10    11    1
    21    11    12    2
    22    12    13    1
    23    12    21    1
    24    13    19   ar
    25    13    14   ar
    26    14    15    1
    27    14    16   ar
    28    16    17   ar
    29    16    36    1
    30    17    18   ar
    31    17    37    1
    32    18    19   ar
    33    18    38    1
    34    19    20    1
    35    22    26   am
    36    22    23    1
    37    23    24    1
    38    23    39    1
    39    23    40    1
    40    24    25    1
    41    24    41    1
    42    24    42    1
    43    25    26    1
    44    25    43    1
    45    25    44    1
    46    26    27    2
@<TRIPOS>SUBSTRUCTURE
     1 ZINC000186105981        1 TEMP              0 ****  ****    0 ROOT


##########                                Name:    ZINC001757264545
##########                DOCK_Rotatable_Bonds:                  11
##########                         Heavy_Atoms:                  25
##########                    Molecular_Weight:             344.497
##########                DOCK_Rotatable_Bonds:                  11
##########                       Formal_Charge:          0.00999946
##########                     HBond_Acceptors:                   4
##########                        HBond_Donors:                   2
##########                         Heavy_Atoms:                  25
##########                          Grid_Score:          -27.323761
##########                     Grid_vdw_energy:          -24.903530
##########                      Grid_es_energy:           -2.420230
##########           Internal_energy_repulsive:            9.724093

@<TRIPOS>MOLECULE
ZINC001757264545
 57 57 1 0 0
SMALL
USER_CHARGES


@<TRIPOS>ATOM
      1 C1        -12.2456    0.6322   50.3017 C.1     1  ZINC001757264545   -0.2100
      2 C2        -11.9483    0.3379   51.3988 C.1     1  ZINC001757264545   -0.1900
      3 C3        -11.5757   -0.0310   52.7741 C.3     1  ZINC001757264545   -0.0100
      4 C4        -10.0986   -0.4285   52.8131 C.3     1  ZINC001757264545   -0.1200
      5 C5         -9.2420    0.7449   52.3335 C.3     1  ZINC001757264545   -0.1200
      6 C6         -7.7632    0.3583   52.4022 C.3     1  ZINC001757264545   -0.1000
      7 C7         -6.9074    1.5255   51.9061 C.3     1  ZINC001757264545   -0.1400
      8 C8         -7.0676    2.6981   52.8390 C.2     1  ZINC001757264545    0.5100
      9 O9         -7.5909    3.7190   52.4455 O.2     1  ZINC001757264545   -0.5400
     10 N10        -6.6292    2.6124   54.1107 N.am    1  ZINC001757264545   -0.7300
     11 C11        -6.7866    3.7517   55.0180 C.3     1  ZINC001757264545    0.1400
     12 H12        -7.6512    4.3417   54.7140 H       1  ZINC001757264545    0.1000
     13 C13        -5.5303    4.6233   54.9650 C.3     1  ZINC001757264545   -0.1300
     14 C14        -5.6946    5.8132   55.9127 C.3     1  ZINC001757264545   -0.1200
     15 C15        -5.9017    5.3033   57.3403 C.3     1  ZINC001757264545   -0.1200
     16 C16        -7.1580    4.4317   57.3934 C.3     1  ZINC001757264545   -0.1300
     17 C17        -6.9936    3.2418   56.4457 C.3     1  ZINC001757264545    0.1400
     18 H18        -6.1290    2.6519   56.7497 H       1  ZINC001757264545    0.1000
     19 N19        -8.1966    2.4073   56.4965 N.am    1  ZINC001757264545   -0.7200
     20 C20        -8.2433    1.3419   57.3207 C.2     1  ZINC001757264545    0.6400
     21 O21        -7.2875    1.0742   58.0233 O.2     1  ZINC001757264545   -0.5200
     22 C22        -9.4186    0.5251   57.3691 C.1     1  ZINC001757264545   -0.2300
     23 C23       -10.3821   -0.1445   57.4088 C.1     1  ZINC001757264545   -0.0500
     24 C24       -11.5901   -0.9842   57.4585 C.3     1  ZINC001757264545    0.0300
     25 C25       -11.2504   -2.3956   56.9755 C.3     1  ZINC001757264545   -0.1400
     26 C26       -12.1078   -1.0481   58.8968 C.3     1  ZINC001757264545   -0.1400
     27 C27       -12.6677   -0.3814   56.5549 C.3     1  ZINC001757264545   -0.1400
     28 H28       -12.5114    0.8953   49.3207 H       1  ZINC001757264545    0.2200
     29 H29       -12.1868   -0.8714   53.1032 H       1  ZINC001757264545    0.0900
     30 H30       -11.7406    0.8194   53.4357 H       1  ZINC001757264545    0.0900
     31 H31        -9.9362   -1.2871   52.1615 H       1  ZINC001757264545    0.0700
     32 H32        -9.8193   -0.6890   53.8339 H       1  ZINC001757264545    0.0700
     33 H33        -9.4212    1.6103   52.9715 H       1  ZINC001757264545    0.0700
     34 H34        -9.5058    0.9910   51.3050 H       1  ZINC001757264545    0.0700
     35 H35        -7.5863   -0.5147   51.7740 H       1  ZINC001757264545    0.0700
     36 H36        -7.4963    0.1244   53.4328 H       1  ZINC001757264545    0.0700
     37 H37        -7.2285    1.8116   50.9045 H       1  ZINC001757264545    0.0900
     38 H38        -5.8606    1.2228   51.8794 H       1  ZINC001757264545    0.0900
     39 H39        -6.2096    1.7963   54.4250 H       1  ZINC001757264545    0.4000
     40 H40        -4.6656    4.0333   55.2691 H       1  ZINC001757264545    0.0700
     41 H41        -5.3828    4.9866   53.9479 H       1  ZINC001757264545    0.0800
     42 H42        -4.7995    6.4341   55.8749 H       1  ZINC001757264545    0.0700
     43 H43        -6.5592    6.4031   55.6086 H       1  ZINC001757264545    0.0700
     44 H44        -6.0187    6.1510   58.0154 H       1  ZINC001757264545    0.0700
     45 H45        -5.0371    4.7133   57.6444 H       1  ZINC001757264545    0.0700
     46 H46        -8.0227    5.0217   57.0893 H       1  ZINC001757264545    0.0700
     47 H47        -7.3055    4.0685   58.4104 H       1  ZINC001757264545    0.0800
     48 H48        -8.9594    2.6214   55.9369 H       1  ZINC001757264545    0.4000
     49 H49       -10.4827   -2.8250   57.6193 H       1  ZINC001757264545    0.0600
     50 H50       -12.1449   -3.0173   57.0124 H       1  ZINC001757264545    0.0700
     51 H51       -10.8815   -2.3500   55.9509 H       1  ZINC001757264545    0.0600
     52 H52       -12.3498   -0.0426   59.2409 H       1  ZINC001757264545    0.0600
     53 H53       -13.0024   -1.6698   58.9337 H       1  ZINC001757264545    0.0700
     54 H54       -11.3401   -1.4775   59.5406 H       1  ZINC001757264545    0.0600
     55 H55       -12.2988   -0.3359   55.5302 H       1  ZINC001757264545    0.0600
     56 H56       -13.5622   -1.0032   56.5918 H       1  ZINC001757264545    0.0700
     57 H57       -12.9096    0.6241   56.8990 H       1  ZINC001757264545    0.0600
@<TRIPOS>BOND
     1     1     2    3
     2     1    28    1
     3     2     3    1
     4     3     4    1
     5     3    29    1
     6     3    30    1
     7     4     5    1
     8     4    31    1
     9     4    32    1
    10     5     6    1
    11     5    33    1
    12     5    34    1
    13     6     7    1
    14     6    35    1
    15     6    36    1
    16     7     8    1
    17     7    37    1
    18     7    38    1
    19     8     9    2
    20     8    10   am
    21    10    11    1
    22    10    39    1
    23    11    12    1
    24    11    17    1
    25    11    13    1
    26    13    14    1
    27    13    40    1
    28    13    41    1
    29    14    15    1
    30    14    42    1
    31    14    43    1
    32    15    16    1
    33    15    44    1
    34    15    45    1
    35    16    17    1
    36    16    46    1
    37    16    47    1
    38    17    18    1
    39    17    19    1
    40    19    20   am
    41    19    48    1
    42    20    21    2
    43    20    22    1
    44    22    23    3
    45    23    24    1
    46    24    25    1
    47    24    26    1
    48    24    27    1
    49    25    49    1
    50    25    50    1
    51    25    51    1
    52    26    52    1
    53    26    53    1
    54    26    54    1
    55    27    55    1
    56    27    56    1
    57    27    57    1
@<TRIPOS>SUBSTRUCTURE
     1 ZINC001757264545        1 TEMP              0 ****  ****    0 ROOT


##########                                Name:    ZINC001707804910
##########                DOCK_Rotatable_Bonds:                   4
##########                         Heavy_Atoms:                  26
##########                    Molecular_Weight:             358.403
##########                DOCK_Rotatable_Bonds:                   4
##########                       Formal_Charge:          -0.0399996
##########                     HBond_Acceptors:                  10
##########                        HBond_Donors:                   0
##########                         Heavy_Atoms:                  26
##########                          Grid_Score:          -27.321730
##########                     Grid_vdw_energy:          -28.045568
##########                      Grid_es_energy:            0.723838
##########           Internal_energy_repulsive:            9.436061

@<TRIPOS>MOLECULE
ZINC001707804910
 48 51 1 0 0
SMALL
USER_CHARGES


@<TRIPOS>ATOM
      1 C1         -3.8912    3.7765   56.2657 C.3     1  ZINC001707804910   -0.0700
      2 C2         -5.2241    3.4859   55.6256 C.2     1  ZINC001707804910    0.0700
      3 N3         -6.3287    3.1822   56.2576 N.2     1  ZINC001707804910   -0.2800
      4 N4         -7.3382    2.9878   55.3060 N.pl3   1  ZINC001707804910   -0.3700
      5 C5         -8.7314    2.6329   55.5876 C.3     1  ZINC001707804910    0.0900
      6 C6         -6.8007    3.1853   54.0840 C.2     1  ZINC001707804910    0.0500
      7 C7         -7.5255    3.0801   52.7670 C.3     1  ZINC001707804910    0.1800
      8 N8         -7.2969    1.7539   52.1883 N.pl3   1  ZINC001707804910   -0.4600
      9 C9         -6.1466    1.2924   51.6106 C.2     1  ZINC001707804910    0.1900
     10 C10        -4.8597    2.0592   51.4464 C.3     1  ZINC001707804910   -0.0700
     11 N11        -6.3692    0.0666   51.2291 N.2     1  ZINC001707804910   -0.2800
     12 N12        -7.5727   -0.2751   51.5242 N.2     1  ZINC001707804910   -0.3000
     13 C13        -8.1857    0.7208   52.1192 C.2     1  ZINC001707804910    0.3500
     14 N14        -9.4918    0.7255   52.5822 N.3     1  ZINC001707804910   -0.4600
     15 C15        -9.7953   -0.5118   53.3158 C.3     1  ZINC001707804910    0.0200
     16 C16       -11.2246   -0.4390   53.8593 C.3     1  ZINC001707804910    0.0700
     17 O17       -12.1306   -0.2161   52.7754 O.3     1  ZINC001707804910   -0.3600
     18 C18       -11.8647    0.9809   52.0395 C.3     1  ZINC001707804910    0.2000
     19 H19       -11.9601    1.8429   52.6998 H       1  ZINC001707804910    0.1000
     20 C20       -12.8497    1.1040   50.9057 C.2     1  ZINC001707804910    0.1600
     21 N21       -13.7185    2.0605   50.7397 N.2     1  ZINC001707804910   -0.2500
     22 N22       -14.3927    1.8432   49.6656 N.2     1  ZINC001707804910   -0.2900
     23 C23       -13.9771    0.7407   49.1099 C.2     1  ZINC001707804910    0.1700
     24 C24       -14.5039    0.1300   47.8368 C.3     1  ZINC001707804910   -0.0600
     25 O25       -12.9893    0.2504   49.8775 O.3     1  ZINC001707804910   -0.2200
     26 C26       -10.4417    0.9225   51.4776 C.3     1  ZINC001707804910    0.0400
     27 C27        -5.4956    3.5001   54.2535 C.2     1  ZINC001707804910   -0.2300
     28 H28        -3.8153    4.8427   56.4788 H       1  ZINC001707804910    0.0800
     29 H29        -3.8036    3.2131   57.1947 H       1  ZINC001707804910    0.0700
     30 H30        -3.0904    3.4839   55.5865 H       1  ZINC001707804910    0.0800
     31 H31        -9.2973    3.5359   55.8169 H       1  ZINC001707804910    0.0800
     32 H32        -9.1653    2.1440   54.7153 H       1  ZINC001707804910    0.0900
     33 H33        -8.7684    1.9547   56.4402 H       1  ZINC001707804910    0.0900
     34 H34        -8.5936    3.2275   52.9273 H       1  ZINC001707804910    0.1100
     35 H35        -7.1519    3.8436   52.0846 H       1  ZINC001707804910    0.1200
     36 H36        -4.2743    1.9870   52.3631 H       1  ZINC001707804910    0.0900
     37 H37        -4.2899    1.6394   50.6175 H       1  ZINC001707804910    0.1000
     38 H38        -5.0841    3.1057   51.2399 H       1  ZINC001707804910    0.0700
     39 H39        -9.7044   -1.3651   52.6436 H       1  ZINC001707804910    0.0700
     40 H40        -9.0960   -0.6244   54.1444 H       1  ZINC001707804910    0.0900
     41 H41       -11.4738   -1.3773   54.3549 H       1  ZINC001707804910    0.1200
     42 H42       -11.3015    0.3816   54.5726 H       1  ZINC001707804910    0.0700
     43 H43       -13.9400    0.5168   46.9879 H       1  ZINC001707804910    0.1000
     44 H44       -14.3955   -0.9537   47.8816 H       1  ZINC001707804910    0.1000
     45 H45       -15.5571    0.3853   47.7200 H       1  ZINC001707804910    0.1100
     46 H46       -10.2145    1.8569   50.9643 H       1  ZINC001707804910    0.1000
     47 H47       -10.3613    0.0922   50.7759 H       1  ZINC001707804910    0.0800
     48 H48        -4.7872    3.7175   53.4679 H       1  ZINC001707804910    0.1500
@<TRIPOS>BOND
     1     1     2    1
     2     1    28    1
     3     1    29    1
     4     1    30    1
     5     2    27    1
     6     2     3    2
     7     3     4    1
     8     4     5    1
     9     4     6    1
    10     5    31    1
    11     5    32    1
    12     5    33    1
    13     6     7    1
    14     6    27    2
    15     7     8    1
    16     7    34    1
    17     7    35    1
    18     8    13    1
    19     8     9    1
    20     9    10    1
    21     9    11    2
    22    10    36    1
    23    10    37    1
    24    10    38    1
    25    11    12    1
    26    12    13    2
    27    13    14    1
    28    14    26    1
    29    14    15    1
    30    15    16    1
    31    15    39    1
    32    15    40    1
    33    16    17    1
    34    16    41    1
    35    16    42    1
    36    17    18    1
    37    18    19    1
    38    18    20    1
    39    18    26    1
    40    20    25    1
    41    20    21    2
    42    21    22    1
    43    22    23    2
    44    23    24    1
    45    23    25    1
    46    24    43    1
    47    24    44    1
    48    24    45    1
    49    26    46    1
    50    26    47    1
    51    27    48    1
@<TRIPOS>SUBSTRUCTURE
     1 ZINC001707804910        1 TEMP              0 ****  ****    0 ROOT


##########                                Name:    ZINC000523878927
##########                DOCK_Rotatable_Bonds:                   8
##########                         Heavy_Atoms:                  27
##########                    Molecular_Weight:             376.474
##########                DOCK_Rotatable_Bonds:                   8
##########                       Formal_Charge:          0.00999957
##########                     HBond_Acceptors:                   7
##########                        HBond_Donors:                   3
##########                         Heavy_Atoms:                  27
##########                          Grid_Score:          -27.321646
##########                     Grid_vdw_energy:          -27.774271
##########                      Grid_es_energy:            0.452625
##########           Internal_energy_repulsive:            7.456383

@<TRIPOS>MOLECULE
ZINC000523878927
 56 58 1 0 0
SMALL
USER_CHARGES


@<TRIPOS>ATOM
      1 C1        -10.5889   -1.1545   54.3910 C.3     1  ZINC000523878927   -0.1500
      2 C2        -11.3458    0.1195   54.0105 C.3     1  ZINC000523878927   -0.0900
      3 H3        -12.3270    0.1147   54.4853 H       1  ZINC000523878927    0.0700
      4 C4        -11.5150    0.1776   52.4909 C.3     1  ZINC000523878927   -0.1200
      5 C5        -10.1378    0.1843   51.8245 C.3     1  ZINC000523878927   -0.1200
      6 C6         -9.3484    1.4069   52.2969 C.3     1  ZINC000523878927   -0.1100
      7 C7         -9.1794    1.3487   53.8164 C.3     1  ZINC000523878927   -0.1000
      8 H8         -8.6401    0.4411   54.0875 H       1  ZINC000523878927    0.0800
      9 C9         -8.3901    2.5713   54.2889 C.3     1  ZINC000523878927    0.1400
     10 N10        -7.1820    2.7177   53.4731 N.am    1  ZINC000523878927   -0.7400
     11 C11        -6.1030    3.3507   53.9746 C.2     1  ZINC000523878927    0.7200
     12 O12        -6.1326    3.8014   55.1034 O.2     1  ZINC000523878927   -0.5800
     13 N13        -4.9911    3.4840   53.2246 N.am    1  ZINC000523878927   -0.6400
     14 C14        -3.7453    4.1503   53.6460 C.3     1  ZINC000523878927    0.1000
     15 C15        -2.6402    3.5204   52.7619 C.3     1  ZINC000523878927   -0.1400
     16 C16        -3.3838    3.3451   51.4114 C.3     1  ZINC000523878927    0.1500
     17 H17        -3.3744    4.2748   50.8425 H       1  ZINC000523878927    0.1100
     18 N18        -2.7912    2.2561   50.6309 N.am    1  ZINC000523878927   -0.7300
     19 C19        -1.6984    2.4853   49.8760 C.2     1  ZINC000523878927    0.7100
     20 O20        -1.2035    3.5955   49.8439 O.2     1  ZINC000523878927   -0.5700
     21 N21        -1.1542    1.4839   49.1567 N.am    1  ZINC000523878927   -0.6800
     22 C22        -0.0186    1.7221   48.3722 C.ar    1  ZINC000523878927    0.1500
     23 C23         1.2025    1.1667   48.7300 C.ar    1  ZINC000523878927   -0.1200
     24 C24         2.3211    1.4024   47.9549 C.ar    1  ZINC000523878927   -0.1300
     25 C25         2.2253    2.1924   46.8217 C.ar    1  ZINC000523878927    0.0800
     26 F26         3.3206    2.4221   46.0650 F       1  ZINC000523878927   -0.1400
     27 C27         1.0083    2.7468   46.4629 C.ar    1  ZINC000523878927   -0.1300
     28 C28        -0.1137    2.5092   47.2324 C.ar    1  ZINC000523878927   -0.0900
     29 C29        -4.8175    2.9836   51.8531 C.3     1  ZINC000523878927    0.1200
     30 C30       -10.5565    1.3420   54.4830 C.3     1  ZINC000523878927   -0.1100
     31 H31       -10.4684   -1.1960   55.4735 H       1  ZINC000523878927    0.0500
     32 H32       -11.1512   -2.0255   54.0544 H       1  ZINC000523878927    0.0500
     33 H33        -9.6078   -1.1498   53.9162 H       1  ZINC000523878927    0.0600
     34 H34       -12.0773   -0.6934   52.1544 H       1  ZINC000523878927    0.0600
     35 H35       -12.0542    1.0853   52.2199 H       1  ZINC000523878927    0.0600
     36 H36        -9.5985   -0.7233   52.0955 H       1  ZINC000523878927    0.0700
     37 H37       -10.2583    0.2257   50.7419 H       1  ZINC000523878927    0.0600
     38 H38        -8.3673    1.4116   51.8220 H       1  ZINC000523878927    0.0600
     39 H39        -9.8878    2.3145   52.0258 H       1  ZINC000523878927    0.0600
     40 H40        -9.0074    3.4638   54.1873 H       1  ZINC000523878927    0.0700
     41 H41        -8.1091    2.4407   55.3340 H       1  ZINC000523878927    0.0700
     42 H42        -7.1588    2.3592   52.5722 H       1  ZINC000523878927    0.3900
     43 H43        -3.8094    5.2234   53.4660 H       1  ZINC000523878927    0.0800
     44 H44        -3.5470    3.9526   54.6994 H       1  ZINC000523878927    0.0800
     45 H45        -1.7919    4.1966   52.6558 H       1  ZINC000523878927    0.1000
     46 H46        -2.3223    2.5571   53.1608 H       1  ZINC000523878927    0.0800
     47 H47        -3.1852    1.3702   50.6574 H       1  ZINC000523878927    0.4000
     48 H48        -1.5489    0.5982   49.1824 H       1  ZINC000523878927    0.4100
     49 H49         1.2777    0.5510   49.6143 H       1  ZINC000523878927    0.1400
     50 H50         3.2711    0.9705   48.2329 H       1  ZINC000523878927    0.1400
     51 H51         0.9356    3.3627   45.5786 H       1  ZINC000523878927    0.1400
     52 H52        -1.0629    2.9415   46.9520 H       1  ZINC000523878927    0.1500
     53 H53        -4.9515    1.9022   51.8280 H       1  ZINC000523878927    0.0700
     54 H54        -5.5406    3.4642   51.1942 H       1  ZINC000523878927    0.0800
     55 H55       -11.0958    2.2497   54.2119 H       1  ZINC000523878927    0.0700
     56 H56       -10.4361    1.3006   55.5655 H       1  ZINC000523878927    0.0700
@<TRIPOS>BOND
     1     1     2    1
     2     1    31    1
     3     1    32    1
     4     1    33    1
     5     2     3    1
     6     2    30    1
     7     2     4    1
     8     4     5    1
     9     4    34    1
    10     4    35    1
    11     5     6    1
    12     5    36    1
    13     5    37    1
    14     6     7    1
    15     6    38    1
    16     6    39    1
    17     7     8    1
    18     7     9    1
    19     7    30    1
    20     9    10    1
    21     9    40    1
    22     9    41    1
    23    10    11   am
    24    10    42    1
    25    11    12    2
    26    11    13   am
    27    13    29    1
    28    13    14    1
    29    14    15    1
    30    14    43    1
    31    14    44    1
    32    15    16    1
    33    15    45    1
    34    15    46    1
    35    16    17    1
    36    16    18    1
    37    16    29    1
    38    18    19   am
    39    18    47    1
    40    19    20    2
    41    19    21   am
    42    21    22    1
    43    21    48    1
    44    22    28   ar
    45    22    23   ar
    46    23    24   ar
    47    23    49    1
    48    24    25   ar
    49    24    50    1
    50    25    26    1
    51    25    27   ar
    52    27    28   ar
    53    27    51    1
    54    28    52    1
    55    29    53    1
    56    29    54    1
    57    30    55    1
    58    30    56    1
@<TRIPOS>SUBSTRUCTURE
     1 ZINC000523878927        1 TEMP              0 ****  ****    0 ROOT


##########                                Name:    ZINC000269287897
##########                DOCK_Rotatable_Bonds:                   8
##########                         Heavy_Atoms:                  23
##########                    Molecular_Weight:             385.301
##########                DOCK_Rotatable_Bonds:                   8
##########                       Formal_Charge:           0.0300002
##########                     HBond_Acceptors:                   5
##########                        HBond_Donors:                   1
##########                         Heavy_Atoms:                  23
##########                          Grid_Score:          -27.312008
##########                     Grid_vdw_energy:          -26.494184
##########                      Grid_es_energy:           -0.817823
##########           Internal_energy_repulsive:            9.483936

@<TRIPOS>MOLECULE
ZINC000269287897
 48 49 1 0 0
SMALL
USER_CHARGES


@<TRIPOS>ATOM
      1 C1         -6.0219    2.1871   50.3889 C.3     1  ZINC000269287897    0.0300
      2 O2         -5.7333    1.1877   51.3687 O.3     1  ZINC000269287897   -0.3800
      3 C3         -6.6623    0.1021   51.3826 C.3     1  ZINC000269287897    0.0600
      4 C4         -7.9986    0.5817   51.9529 C.3     1  ZINC000269287897    0.0600
      5 O5         -8.8312   -0.5464   52.2289 O.3     1  ZINC000269287897   -0.3800
      6 C6        -10.2308   -0.2687   52.1516 C.3     1  ZINC000269287897    0.0700
      7 C7        -10.6435    0.6057   53.3373 C.3     1  ZINC000269287897   -0.1000
      8 H8        -10.2440    1.6145   53.2339 H       1  ZINC000269287897    0.1000
      9 C9        -12.1866    0.6323   53.4982 C.3     1  ZINC000269287897   -0.1200
     10 C10       -12.3722    0.9214   55.0028 C.3     1  ZINC000269287897    0.1000
     11 N11       -11.1329    0.5154   55.6814 N.am    1  ZINC000269287897   -0.6300
     12 C12       -10.8885    0.6249   57.0023 C.2     1  ZINC000269287897    0.7300
     13 O13       -11.7342    1.0925   57.7403 O.2     1  ZINC000269287897   -0.5600
     14 N14        -9.7069    0.2161   57.5052 N.am    1  ZINC000269287897   -0.6900
     15 C15        -9.4531    0.3299   58.8772 C.ar    1  ZINC000269287897    0.1800
     16 C16        -8.9320    1.5086   59.3928 C.ar    1  ZINC000269287897   -0.0600
     17 C17        -8.6384    2.6681   58.4760 C.3     1  ZINC000269287897   -0.1000
     18 C18        -8.6831    1.6181   60.7474 C.ar    1  ZINC000269287897   -0.0900
     19 C19        -8.9524    0.5553   61.5896 C.ar    1  ZINC000269287897   -0.0800
     20 C20        -8.6795    0.6786   63.0666 C.3     1  ZINC000269287897   -0.1100
     21 C21        -9.4721   -0.6206   61.0798 C.ar    1  ZINC000269287897   -0.0900
     22 C22        -9.7279   -0.7350   59.7268 C.ar    1  ZINC000269287897   -0.1000
     23 Br23      -10.4390   -2.3428   59.0303 Br      1  ZINC000269287897   -0.0500
     24 C24       -10.2011   -0.0321   54.6779 C.3     1  ZINC000269287897    0.1400
     25 H25        -6.0063    1.7377   49.3960 H       1  ZINC000269287897    0.0400
     26 H26        -7.0080    2.6101   50.5808 H       1  ZINC000269287897    0.0400
     27 H27        -5.2715    2.9759   50.4425 H       1  ZINC000269287897    0.0900
     28 H28        -6.8109   -0.2620   50.3661 H       1  ZINC000269287897    0.0600
     29 H29        -6.2705   -0.7035   52.0035 H       1  ZINC000269287897    0.0600
     30 H30        -7.8222    1.1371   52.8741 H       1  ZINC000269287897    0.0700
     31 H31        -8.4920    1.2286   51.2276 H       1  ZINC000269287897    0.0600
     32 H32       -10.4462    0.2562   51.2208 H       1  ZINC000269287897    0.0600
     33 H33       -10.7889   -1.2045   52.1786 H       1  ZINC000269287897    0.0500
     34 H34       -12.6234    1.4287   52.8957 H       1  ZINC000269287897    0.0900
     35 H35       -12.6185   -0.3332   53.2348 H       1  ZINC000269287897    0.0800
     36 H36       -12.5476    1.9861   55.1568 H       1  ZINC000269287897    0.0700
     37 H37       -13.2127    0.3453   55.3899 H       1  ZINC000269287897    0.0700
     38 H38        -9.0322   -0.1569   56.9165 H       1  ZINC000269287897    0.4100
     39 H39        -9.4657    3.3770   58.5104 H       1  ZINC000269287897    0.0900
     40 H40        -7.7222    3.1629   58.7980 H       1  ZINC000269287897    0.0600
     41 H41        -8.5152    2.3028   57.4564 H       1  ZINC000269287897    0.0600
     42 H42        -8.2773    2.5350   61.1488 H       1  ZINC000269287897    0.1300
     43 H43        -9.5662    1.0654   63.5688 H       1  ZINC000269287897    0.0700
     44 H44        -8.4303   -0.3016   63.4731 H       1  ZINC000269287897    0.0700
     45 H45        -7.8447    1.3610   63.2261 H       1  ZINC000269287897    0.0700
     46 H46        -9.6814   -1.4491   61.7403 H       1  ZINC000269287897    0.1400
     47 H47       -10.2910   -1.1172   54.6290 H       1  ZINC000269287897    0.0700
     48 H48        -9.1766    0.2542   54.9156 H       1  ZINC000269287897    0.0900
@<TRIPOS>BOND
     1     1     2    1
     2     1    25    1
     3     1    26    1
     4     1    27    1
     5     2     3    1
     6     3     4    1
     7     3    28    1
     8     3    29    1
     9     4     5    1
    10     4    30    1
    11     4    31    1
    12     5     6    1
    13     6     7    1
    14     6    32    1
    15     6    33    1
    16     7     8    1
    17     7    24    1
    18     7     9    1
    19     9    10    1
    20     9    34    1
    21     9    35    1
    22    10    11    1
    23    10    36    1
    24    10    37    1
    25    11    12   am
    26    11    24    1
    27    12    13    2
    28    12    14   am
    29    14    15    1
    30    14    38    1
    31    15    22   ar
    32    15    16   ar
    33    16    17    1
    34    16    18   ar
    35    17    39    1
    36    17    40    1
    37    17    41    1
    38    18    19   ar
    39    18    42    1
    40    19    20    1
    41    19    21   ar
    42    20    43    1
    43    20    44    1
    44    20    45    1
    45    21    22   ar
    46    21    46    1
    47    22    23    1
    48    24    47    1
    49    24    48    1
@<TRIPOS>SUBSTRUCTURE
     1 ZINC000269287897        1 TEMP              0 ****  ****    0 ROOT


##########                                Name:    ZINC000995593866
##########                DOCK_Rotatable_Bonds:                   7
##########                         Heavy_Atoms:                  24
##########                    Molecular_Weight:             342.389
##########                DOCK_Rotatable_Bonds:                   7
##########                       Formal_Charge:                0.03
##########                     HBond_Acceptors:                   8
##########                        HBond_Donors:                   1
##########                         Heavy_Atoms:                  24
##########                          Grid_Score:          -27.288805
##########                     Grid_vdw_energy:          -26.227665
##########                      Grid_es_energy:           -1.061139
##########           Internal_energy_repulsive:           10.762747

@<TRIPOS>MOLECULE
ZINC000995593866
 48 50 1 0 0
SMALL
USER_CHARGES


@<TRIPOS>ATOM
      1 C1         -7.7639    1.8767   53.5160 C.3     1  ZINC000995593866   -0.1400
      2 C2         -7.5723    3.0272   54.5063 C.3     1  ZINC000995593866   -0.0800
      3 C3         -7.5149    4.3634   53.7631 C.3     1  ZINC000995593866   -0.1400
      4 C4         -8.7144    3.0370   55.5451 C.3     1  ZINC000995593866    0.1200
      5 N5         -8.1755    2.2819   56.7001 N.am    1  ZINC000995593866   -0.6300
      6 C6         -8.8236    1.3990   57.4857 C.2     1  ZINC000995593866    0.5400
      7 O7         -9.9916    1.1464   57.2787 O.2     1  ZINC000995593866   -0.5300
      8 C8         -8.0969    0.7258   58.6214 C.3     1  ZINC000995593866   -0.1300
      9 C9         -9.0817   -0.1293   59.4214 C.3     1  ZINC000995593866   -0.1000
     10 C10        -8.4043   -1.0441   60.4555 C.3     1  ZINC000995593866   -0.1300
     11 C11        -9.5612   -0.6944   61.4062 C.3     1  ZINC000995593866   -0.1400
     12 C12        -9.7168    0.6118   60.6097 C.3     1  ZINC000995593866   -0.1400
     13 C13        -6.7628    2.7173   56.7958 C.3     1  ZINC000995593866    0.1100
     14 C14        -6.2855    2.8164   55.3309 C.3     1  ZINC000995593866    0.0800
     15 H15        -5.7899    1.8933   55.0305 H       1  ZINC000995593866    0.0700
     16 N16        -5.3776    3.9594   55.1658 N.3     1  ZINC000995593866   -0.6800
     17 C17        -4.0853    3.5300   54.6148 C.3     1  ZINC000995593866    0.1500
     18 C18        -3.1553    3.1636   55.7424 C.2     1  ZINC000995593866    0.1900
     19 N19        -1.8798    2.8764   55.6407 N.2     1  ZINC000995593866   -0.4300
     20 C20        -1.4665    2.6154   56.8937 C.2     1  ZINC000995593866    0.0900
     21 C21        -0.0698    2.2324   57.3106 C.3     1  ZINC000995593866    0.3800
     22 F22         0.7211    2.0431   56.1722 F       1  ZINC000995593866   -0.1800
     23 F23         0.4788    3.2524   58.0953 F       1  ZINC000995593866   -0.1700
     24 N24        -2.4925    2.7545   57.6788 N.2     1  ZINC000995593866   -0.3400
     25 O25        -3.4713    3.0749   57.0379 O.3     1  ZINC000995593866    0.1000
     26 H26        -7.8416    0.9365   54.0620 H       1  ZINC000995593866    0.0600
     27 H27        -8.6758    2.0398   52.9416 H       1  ZINC000995593866    0.0600
     28 H28        -6.9108    1.8343   52.8389 H       1  ZINC000995593866    0.0600
     29 H29        -8.4407    4.5097   53.2066 H       1  ZINC000995593866    0.0700
     30 H30        -7.3908    5.1737   54.4815 H       1  ZINC000995593866    0.0700
     31 H31        -6.6723    4.3586   53.0716 H       1  ZINC000995593866    0.0600
     32 H32        -8.9534    4.0595   55.8376 H       1  ZINC000995593866    0.0800
     33 H33        -9.5972    2.5392   55.1440 H       1  ZINC000995593866    0.0900
     34 H34        -7.3062    0.0911   58.2212 H       1  ZINC000995593866    0.0900
     35 H35        -7.6603    1.4828   59.2730 H       1  ZINC000995593866    0.0900
     36 H36        -9.8060   -0.6434   58.7897 H       1  ZINC000995593866    0.1000
     37 H37        -8.3824   -2.0936   60.1619 H       1  ZINC000995593866    0.0700
     38 H38        -7.4351   -0.6779   60.7939 H       1  ZINC000995593866    0.0800
     39 H39       -10.4166   -1.3641   61.3180 H       1  ZINC000995593866    0.0800
     40 H40        -9.2469   -0.5414   62.4386 H       1  ZINC000995593866    0.0700
     41 H41        -9.1065    1.4307   60.9904 H       1  ZINC000995593866    0.0800
     42 H42       -10.7546    0.8992   60.4408 H       1  ZINC000995593866    0.0700
     43 H43        -6.6970    3.6898   57.2837 H       1  ZINC000995593866    0.0900
     44 H44        -6.1732    1.9783   57.3384 H       1  ZINC000995593866    0.0800
     45 H45        -5.7968    4.6739   54.5899 H       1  ZINC000995593866    0.3600
     46 H46        -4.2348    2.6633   53.9709 H       1  ZINC000995593866    0.1200
     47 H47        -3.6498    4.3432   54.0342 H       1  ZINC000995593866    0.0800
     48 H48        -0.1033    1.3082   57.8875 H       1  ZINC000995593866    0.1500
@<TRIPOS>BOND
     1     1     2    1
     2     1    26    1
     3     1    27    1
     4     1    28    1
     5     2    14    1
     6     2     3    1
     7     2     4    1
     8     3    29    1
     9     3    30    1
    10     3    31    1
    11     4     5    1
    12     4    32    1
    13     4    33    1
    14     5     6   am
    15     5    13    1
    16     6     7    2
    17     6     8    1
    18     8     9    1
    19     8    34    1
    20     8    35    1
    21     9    12    1
    22     9    10    1
    23     9    36    1
    24    10    11    1
    25    10    37    1
    26    10    38    1
    27    11    12    1
    28    11    39    1
    29    11    40    1
    30    12    41    1
    31    12    42    1
    32    13    14    1
    33    13    43    1
    34    13    44    1
    35    14    15    1
    36    14    16    1
    37    16    17    1
    38    16    45    1
    39    17    18    1
    40    17    46    1
    41    17    47    1
    42    18    25    1
    43    18    19    2
    44    19    20    1
    45    20    21    1
    46    20    24    2
    47    21    22    1
    48    21    23    1
    49    21    48    1
    50    24    25    1
@<TRIPOS>SUBSTRUCTURE
     1 ZINC000995593866        1 TEMP              0 ****  ****    0 ROOT


##########                                Name:    ZINC000463741321
##########                DOCK_Rotatable_Bonds:                   7
##########                         Heavy_Atoms:                  26
##########                    Molecular_Weight:             354.467
##########                DOCK_Rotatable_Bonds:                   7
##########                       Formal_Charge:         -6.4075e-07
##########                     HBond_Acceptors:                   4
##########                        HBond_Donors:                   1
##########                         Heavy_Atoms:                  26
##########                          Grid_Score:          -27.279406
##########                     Grid_vdw_energy:          -27.319332
##########                      Grid_es_energy:            0.039926
##########           Internal_energy_repulsive:           13.041013

@<TRIPOS>MOLECULE
ZINC000463741321
 53 55 1 0 0
SMALL
USER_CHARGES


@<TRIPOS>ATOM
      1 C1        -12.2288    0.8866   51.3536 C.3     1  ZINC000463741321   -0.1500
      2 C2        -11.1747    0.3481   52.3232 C.3     1  ZINC000463741321   -0.1100
      3 H3        -10.8020   -0.6095   51.9595 H       1  ZINC000463741321    0.1000
      4 C4        -10.0161    1.3426   52.4206 C.3     1  ZINC000463741321   -0.0900
      5 C5         -8.6883    0.5924   52.2971 C.3     1  ZINC000463741321   -0.0800
      6 C6         -7.5827    1.5733   52.0034 C.ar    1  ZINC000463741321   -0.1200
      7 C7         -7.6902    2.8836   52.4284 C.ar    1  ZINC000463741321   -0.0900
      8 C8         -6.6758    3.7839   52.1589 C.ar    1  ZINC000463741321   -0.1300
      9 C9         -5.5535    3.3743   51.4639 C.ar    1  ZINC000463741321   -0.1000
     10 C10        -5.4439    2.0641   51.0374 C.ar    1  ZINC000463741321   -0.1500
     11 C11        -6.4558    1.1603   51.3123 C.ar    1  ZINC000463741321    0.1000
     12 F12        -6.3498   -0.1205   50.8959 F       1  ZINC000463741321   -0.1400
     13 C13       -11.7929    0.1621   53.6848 C.2     1  ZINC000463741321    0.5200
     14 O14       -12.6645    0.9158   54.0633 O.2     1  ZINC000463741321   -0.5300
     15 N15       -11.3774   -0.8420   54.4821 N.am    1  ZINC000463741321   -0.7300
     16 C16       -11.9773   -1.0218   55.8066 C.3     1  ZINC000463741321    0.1500
     17 H17       -12.8034   -0.3217   55.9300 H       1  ZINC000463741321    0.1000
     18 C18       -12.4977   -2.4555   55.9417 C.3     1  ZINC000463741321   -0.1300
     19 C19       -13.0685   -2.6523   57.3488 C.3     1  ZINC000463741321   -0.1200
     20 C20       -11.9817   -2.3469   58.3822 C.3     1  ZINC000463741321    0.0600
     21 N21       -11.5175   -0.9641   58.2119 N.3     1  ZINC000463741321   -0.4800
     22 C22       -10.6201   -0.6096   59.2218 C.ar    1  ZINC000463741321    0.1100
     23 C23        -9.4654   -1.3559   59.4206 C.ar    1  ZINC000463741321   -0.1700
     24 C24        -8.5800   -1.0022   60.4196 C.ar    1  ZINC000463741321   -0.0900
     25 C25        -8.8420    0.0932   61.2220 C.ar    1  ZINC000463741321   -0.1500
     26 C26        -9.9904    0.8383   61.0268 C.ar    1  ZINC000463741321   -0.0900
     27 C27       -10.8774    0.4936   60.0259 C.ar    1  ZINC000463741321   -0.1400
     28 C28       -10.9224   -0.7626   56.8846 C.3     1  ZINC000463741321    0.0500
     29 H29       -12.6016    1.8442   51.7174 H       1  ZINC000463741321    0.0600
     30 H30       -11.7817    1.0211   50.3688 H       1  ZINC000463741321    0.0700
     31 H31       -13.0543    0.1781   51.2842 H       1  ZINC000463741321    0.0600
     32 H32       -10.0963    2.0739   51.6163 H       1  ZINC000463741321    0.0700
     33 H33       -10.0564    1.8543   53.3822 H       1  ZINC000463741321    0.0700
     34 H34        -8.4755    0.0743   53.2322 H       1  ZINC000463741321    0.0800
     35 H35        -8.7550   -0.1334   51.4868 H       1  ZINC000463741321    0.0800
     36 H36        -8.5670    3.2049   52.9708 H       1  ZINC000463741321    0.1300
     37 H37        -6.7608    4.8079   52.4915 H       1  ZINC000463741321    0.1300
     38 H38        -4.7619    4.0784   51.2537 H       1  ZINC000463741321    0.1300
     39 H39        -4.5671    1.7446   50.4937 H       1  ZINC000463741321    0.1400
     40 H40       -10.6813   -1.4455   54.1790 H       1  ZINC000463741321    0.4000
     41 H41       -13.2804   -2.6299   55.2034 H       1  ZINC000463741321    0.0700
     42 H42       -11.6794   -3.1569   55.7791 H       1  ZINC000463741321    0.0600
     43 H43       -13.9117   -1.9778   57.4972 H       1  ZINC000463741321    0.0800
     44 H44       -13.4017   -3.6836   57.4653 H       1  ZINC000463741321    0.0800
     45 H45       -12.3890   -2.4723   59.3854 H       1  ZINC000463741321    0.0900
     46 H46       -11.1447   -3.0309   58.2421 H       1  ZINC000463741321    0.0500
     47 H47        -9.2607   -2.2119   58.7947 H       1  ZINC000463741321    0.1200
     48 H48        -7.6822   -1.5820   60.5747 H       1  ZINC000463741321    0.1200
     49 H49        -8.1482    0.3671   62.0030 H       1  ZINC000463741321    0.1200
     50 H50       -10.1921    1.6932   61.6553 H       1  ZINC000463741321    0.1200
     51 H51       -11.7740    1.0761   59.8737 H       1  ZINC000463741321    0.1300
     52 H52       -10.0903   -1.4538   56.7509 H       1  ZINC000463741321    0.0500
     53 H53       -10.5603    0.2621   56.8007 H       1  ZINC000463741321    0.0900
@<TRIPOS>BOND
     1     1     2    1
     2     1    29    1
     3     1    30    1
     4     1    31    1
     5     2     3    1
     6     2     4    1
     7     2    13    1
     8     4     5    1
     9     4    32    1
    10     4    33    1
    11     5     6    1
    12     5    34    1
    13     5    35    1
    14     6    11   ar
    15     6     7   ar
    16     7     8   ar
    17     7    36    1
    18     8     9   ar
    19     8    37    1
    20     9    10   ar
    21     9    38    1
    22    10    11   ar
    23    10    39    1
    24    11    12    1
    25    13    14    2
    26    13    15   am
    27    15    16    1
    28    15    40    1
    29    16    17    1
    30    16    28    1
    31    16    18    1
    32    18    19    1
    33    18    41    1
    34    18    42    1
    35    19    20    1
    36    19    43    1
    37    19    44    1
    38    20    21    1
    39    20    45    1
    40    20    46    1
    41    21    22    1
    42    21    28    1
    43    22    27   ar
    44    22    23   ar
    45    23    24   ar
    46    23    47    1
    47    24    25   ar
    48    24    48    1
    49    25    26   ar
    50    25    49    1
    51    26    27   ar
    52    26    50    1
    53    27    51    1
    54    28    52    1
    55    28    53    1
@<TRIPOS>SUBSTRUCTURE
     1 ZINC000463741321        1 TEMP              0 ****  ****    0 ROOT


##########                                Name:    ZINC000753658424
##########                DOCK_Rotatable_Bonds:                   8
##########                         Heavy_Atoms:                  24
##########                    Molecular_Weight:             332.399
##########                DOCK_Rotatable_Bonds:                   8
##########                       Formal_Charge:        -9.16421e-07
##########                     HBond_Acceptors:                   6
##########                        HBond_Donors:                   3
##########                         Heavy_Atoms:                  24
##########                          Grid_Score:          -27.267513
##########                     Grid_vdw_energy:          -26.054134
##########                      Grid_es_energy:           -1.213378
##########           Internal_energy_repulsive:           16.359451

@<TRIPOS>MOLECULE
ZINC000753658424
 48 49 1 0 0
SMALL
USER_CHARGES


@<TRIPOS>ATOM
      1 C1        -10.7560   -0.4670   55.5603 C.3     1  ZINC000753658424   -0.2000
      2 C2        -10.7195    0.9472   55.0411 C.2     1  ZINC000753658424    0.4400
      3 O3        -11.7464    1.5869   54.9506 O.2     1  ZINC000753658424   -0.4500
      4 C4         -9.4430    1.5503   54.6455 C.2     1  ZINC000753658424   -0.2500
      5 C5         -8.4742    2.0621   55.4947 C.2     1  ZINC000753658424    0.1000
      6 C6         -8.5491    2.0964   56.9995 C.3     1  ZINC000753658424   -0.1000
      7 N7         -7.4587    2.5210   54.7487 N.pl3   1  ZINC000753658424   -0.5300
      8 C8         -7.7448    2.3186   53.4156 C.2     1  ZINC000753658424   -0.0600
      9 C9         -6.8808    2.6854   52.2862 C.2     1  ZINC000753658424    0.5900
     10 O10        -7.3624    3.1976   51.2932 O.2     1  ZINC000753658424   -0.5200
     11 N11        -5.5545    2.4548   52.3497 N.am    1  ZINC000753658424   -0.7300
     12 C12        -4.6928    2.8193   51.2224 C.3     1  ZINC000753658424    0.0900
     13 C13        -3.2527    2.9819   51.7129 C.3     1  ZINC000753658424    0.1900
     14 H14        -2.9836    2.1307   52.3383 H       1  ZINC000753658424    0.1300
     15 O15        -3.1420    4.1862   52.4742 O.3     1  ZINC000753658424   -0.5500
     16 C16        -2.3231    3.0490   50.5287 C.2     1  ZINC000753658424   -0.0600
     17 C17        -1.2326    3.8299   50.4281 C.2     1  ZINC000753658424   -0.1800
     18 C18        -0.6623    3.5756   49.1595 C.2     1  ZINC000753658424   -0.2100
     19 C19        -1.4385    2.6544   48.5610 C.2     1  ZINC000753658424    0.0000
     20 C20        -1.2181    2.0740   47.1878 C.3     1  ZINC000753658424   -0.0800
     21 O21        -2.4396    2.3348   49.3972 O.3     1  ZINC000753658424   -0.1700
     22 C22        -8.9628    1.7150   53.3240 C.2     1  ZINC000753658424   -0.0100
     23 C23        -9.6690    1.3085   52.0563 C.3     1  ZINC000753658424   -0.0500
     24 C24       -10.2360   -0.1033   52.2187 C.3     1  ZINC000753658424   -0.1500
     25 C25       -10.8103    2.2870   51.7720 C.3     1  ZINC000753658424   -0.1500
     26 H26       -11.7702   -0.7123   55.8756 H       1  ZINC000753658424    0.0800
     27 H27       -10.4452   -1.1518   54.7713 H       1  ZINC000753658424    0.1000
     28 H28       -10.0790   -0.5599   56.4095 H       1  ZINC000753658424    0.0900
     29 H29        -8.0407    1.2234   57.4086 H       1  ZINC000753658424    0.0900
     30 H30        -8.0674    3.0027   57.3666 H       1  ZINC000753658424    0.0800
     31 H31        -9.5935    2.0881   57.3115 H       1  ZINC000753658424    0.0900
     32 H32        -6.6498    2.9309   55.0931 H       1  ZINC000753658424    0.4200
     33 H33        -5.1704    2.0476   53.1420 H       1  ZINC000753658424    0.4000
     34 H34        -4.7327    2.0352   50.4663 H       1  ZINC000753658424    0.0900
     35 H35        -5.0376    3.7586   50.7902 H       1  ZINC000753658424    0.0800
     36 H36        -3.7497    4.2343   53.2248 H       1  ZINC000753658424    0.3900
     37 H37        -0.8637    4.5194   51.1730 H       1  ZINC000753658424    0.1500
     38 H38         0.2259    4.0333   48.7497 H       1  ZINC000753658424    0.1500
     39 H39        -0.5915    1.1854   47.2653 H       1  ZINC000753658424    0.0800
     40 H40        -2.1785    1.8041   46.7488 H       1  ZINC000753658424    0.0800
     41 H41        -0.7245    2.8126   46.5561 H       1  ZINC000753658424    0.0900
     42 H42        -8.9626    1.3230   51.2263 H       1  ZINC000753658424    0.1100
     43 H43       -11.0284   -0.0926   52.9672 H       1  ZINC000753658424    0.0500
     44 H44       -10.6409   -0.4440   51.2658 H       1  ZINC000753658424    0.0600
     45 H45        -9.4428   -0.7789   52.5388 H       1  ZINC000753658424    0.0600
     46 H46       -10.3995    3.2777   51.5777 H       1  ZINC000753658424    0.0500
     47 H47       -11.3703    1.9485   50.9002 H       1  ZINC000753658424    0.0600
     48 H48       -11.4740    2.3317   52.6354 H       1  ZINC000753658424    0.0600
@<TRIPOS>BOND
     1     1     2    1
     2     1    26    1
     3     1    27    1
     4     1    28    1
     5     2     3    2
     6     2     4    1
     7     4    22    1
     8     4     5    2
     9     5     6    1
    10     5     7    1
    11     6    29    1
    12     6    30    1
    13     6    31    1
    14     7     8    1
    15     7    32    1
    16     8     9    1
    17     8    22    2
    18     9    10    2
    19     9    11   am
    20    11    12    1
    21    11    33    1
    22    12    13    1
    23    12    34    1
    24    12    35    1
    25    13    14    1
    26    13    15    1
    27    13    16    1
    28    15    36    1
    29    16    21    1
    30    16    17    2
    31    17    18    1
    32    17    37    1
    33    18    19    2
    34    18    38    1
    35    19    20    1
    36    19    21    1
    37    20    39    1
    38    20    40    1
    39    20    41    1
    40    22    23    1
    41    23    24    1
    42    23    25    1
    43    23    42    1
    44    24    43    1
    45    24    44    1
    46    24    45    1
    47    25    46    1
    48    25    47    1
    49    25    48    1
@<TRIPOS>SUBSTRUCTURE
     1 ZINC000753658424        1 TEMP              0 ****  ****    0 ROOT


##########                                Name:    ZINC000676564986
##########                DOCK_Rotatable_Bonds:                   5
##########                         Heavy_Atoms:                  25
##########                    Molecular_Weight:             347.444
##########                DOCK_Rotatable_Bonds:                   5
##########                       Formal_Charge:          -0.0100005
##########                     HBond_Acceptors:                   6
##########                        HBond_Donors:                   1
##########                         Heavy_Atoms:                  25
##########                          Grid_Score:          -27.267256
##########                     Grid_vdw_energy:          -26.440723
##########                      Grid_es_energy:           -0.826533
##########           Internal_energy_repulsive:            4.225369

@<TRIPOS>MOLECULE
ZINC000676564986
 42 45 1 0 0
SMALL
USER_CHARGES


@<TRIPOS>ATOM
      1 C1         -7.8584    1.9975   63.6379 C.3     1  ZINC000676564986    0.0800
      2 N2         -9.0305    1.2420   63.1889 N.pl3   1  ZINC000676564986   -0.4800
      3 C3        -10.3033    1.3729   63.6592 C.2     1  ZINC000676564986    0.2500
      4 N4        -11.0940    0.5469   63.0379 N.2     1  ZINC000676564986   -0.4600
      5 C5        -10.3811   -0.1647   62.1320 C.ar    1  ZINC000676564986   -0.1100
      6 C6        -10.6902   -1.1712   61.2016 C.ar    1  ZINC000676564986    0.5100
      7 N7        -11.9851   -1.6417   61.0716 N.pl3   1  ZINC000676564986   -0.6900
      8 C8        -12.2731   -2.7517   60.1599 C.3     1  ZINC000676564986    0.1700
      9 C9        -12.3354   -2.2362   58.7450 C.ar    1  ZINC000676564986   -0.0800
     10 C10       -13.2477   -1.2527   58.4087 C.ar    1  ZINC000676564986   -0.1100
     11 C11       -13.3077   -0.7781   57.1135 C.ar    1  ZINC000676564986   -0.0700
     12 C12       -12.4500   -1.2900   56.1472 C.ar    1  ZINC000676564986   -0.1300
     13 S13       -12.5225   -0.6870   54.4932 S.3     1  ZINC000676564986   -0.0100
     14 C14       -10.8918   -0.0769   54.2219 C.ar    1  ZINC000676564986   -0.1000
     15 C15       -10.2552    0.6704   55.2056 C.ar    1  ZINC000676564986   -0.1200
     16 C16        -8.9772    1.1465   54.9897 C.ar    1  ZINC000676564986   -0.1000
     17 C17        -8.3307    0.8806   53.7964 C.ar    1  ZINC000676564986   -0.1200
     18 C18        -8.9613    0.1373   52.8151 C.ar    1  ZINC000676564986   -0.1000
     19 C19       -10.2372   -0.3465   53.0262 C.ar    1  ZINC000676564986   -0.1000
     20 C20       -11.5346   -2.2783   56.4888 C.ar    1  ZINC000676564986   -0.0700
     21 C21       -11.4764   -2.7441   57.7874 C.ar    1  ZINC000676564986   -0.1100
     22 N22        -9.7101   -1.6606   60.4490 N.ar    1  ZINC000676564986   -0.5900
     23 C23        -8.4718   -1.2174   60.5658 C.ar    1  ZINC000676564986    0.3600
     24 N24        -8.1359   -0.2767   61.4235 N.ar    1  ZINC000676564986   -0.5600
     25 C25        -9.0495    0.2769   62.2138 C.ar    1  ZINC000676564986    0.3000
     26 H26        -7.7601    2.9043   63.0410 H       1  ZINC000676564986    0.0800
     27 H27        -7.9787    2.2649   64.6878 H       1  ZINC000676564986    0.0900
     28 H28        -6.9642    1.3856   63.5189 H       1  ZINC000676564986    0.0900
     29 H29       -10.6101    2.0604   64.4335 H       1  ZINC000676564986    0.2200
     30 H30       -12.7022   -1.2367   61.5842 H       1  ZINC000676564986    0.4200
     31 H31       -11.4854   -3.5008   60.2393 H       1  ZINC000676564986    0.0800
     32 H32       -13.2300   -3.2011   60.4252 H       1  ZINC000676564986    0.0800
     33 H33       -13.9142   -0.8555   59.1601 H       1  ZINC000676564986    0.1300
     34 H34       -14.0205   -0.0103   56.8514 H       1  ZINC000676564986    0.1400
     35 H35       -10.7596    0.8787   56.1376 H       1  ZINC000676564986    0.1200
     36 H36        -8.4820    1.7275   55.7536 H       1  ZINC000676564986    0.1300
     37 H37        -7.3313    1.2546   53.6301 H       1  ZINC000676564986    0.1300
     38 H38        -8.4535   -0.0684   51.8845 H       1  ZINC000676564986    0.1300
     39 H39       -10.7289   -0.9271   52.2596 H       1  ZINC000676564986    0.1300
     40 H40       -10.8665   -2.6784   55.7405 H       1  ZINC000676564986    0.1300
     41 H41       -10.7653   -3.5121   58.0535 H       1  ZINC000676564986    0.1300
     42 H42        -7.7057   -1.6427   59.9345 H       1  ZINC000676564986    0.2000
@<TRIPOS>BOND
     1     1     2    1
     2     1    26    1
     3     1    27    1
     4     1    28    1
     5     2    25    1
     6     2     3    1
     7     3     4    2
     8     3    29    1
     9     4     5    1
    10     5    25   ar
    11     5     6   ar
    12     6     7    1
    13     6    22   ar
    14     7     8    1
    15     7    30    1
    16     8     9    1
    17     8    31    1
    18     8    32    1
    19     9    21   ar
    20     9    10   ar
    21    10    11   ar
    22    10    33    1
    23    11    12   ar
    24    11    34    1
    25    12    13    1
    26    12    20   ar
    27    13    14    1
    28    14    19   ar
    29    14    15   ar
    30    15    16   ar
    31    15    35    1
    32    16    17   ar
    33    16    36    1
    34    17    18   ar
    35    17    37    1
    36    18    19   ar
    37    18    38    1
    38    19    39    1
    39    20    21   ar
    40    20    40    1
    41    21    41    1
    42    22    23   ar
    43    23    24   ar
    44    23    42    1
    45    24    25   ar
@<TRIPOS>SUBSTRUCTURE
     1 ZINC000676564986        1 TEMP              0 ****  ****    0 ROOT


##########                                Name:    ZINC001318556452
##########                DOCK_Rotatable_Bonds:                   4
##########                         Heavy_Atoms:                  26
##########                    Molecular_Weight:             368.456
##########                DOCK_Rotatable_Bonds:                   4
##########                       Formal_Charge:          -0.0200005
##########                     HBond_Acceptors:                   6
##########                        HBond_Donors:                   1
##########                         Heavy_Atoms:                  26
##########                          Grid_Score:          -27.238615
##########                     Grid_vdw_energy:          -24.820736
##########                      Grid_es_energy:           -2.417879
##########           Internal_energy_repulsive:           12.801957

@<TRIPOS>MOLECULE
ZINC001318556452
 46 48 1 0 0
SMALL
USER_CHARGES


@<TRIPOS>ATOM
      1 C1        -12.3537   -1.2566   59.1103 C.3     1  ZINC001318556452   -0.1300
      2 C2        -13.4296   -2.1223   58.5069 C.ar    1  ZINC001318556452   -0.1000
      3 C3        -14.4656   -2.5861   59.2930 C.ar    1  ZINC001318556452   -0.0500
      4 C4        -14.5199   -2.2264   60.7555 C.3     1  ZINC001318556452   -0.4100
      5 S5        -15.1176   -0.5234   60.9376 S.o     1  ZINC001318556452    1.2500
      6 C6        -15.1137   -0.2796   62.7351 C.3     1  ZINC001318556452   -0.4900
      7 O7        -16.4495   -0.4343   60.4504 O.2     1  ZINC001318556452   -0.8400
      8 C8        -15.4538   -3.3799   58.7397 C.ar    1  ZINC001318556452   -0.1200
      9 C9        -15.4076   -3.7126   57.3985 C.ar    1  ZINC001318556452   -0.1000
     10 C10       -14.3735   -3.2528   56.6066 C.ar    1  ZINC001318556452   -0.1200
     11 C11       -13.3830   -2.4501   57.1575 C.ar    1  ZINC001318556452    0.1400
     12 N12       -12.3353   -1.9826   56.3588 N.am    1  ZINC001318556452   -0.6600
     13 C13       -12.4735   -0.8313   55.6719 C.2     1  ZINC001318556452    0.5600
     14 O14       -13.5087   -0.1996   55.7469 O.2     1  ZINC001318556452   -0.5000
     15 C15       -11.3622   -0.3356   54.8248 C.2     1  ZINC001318556452   -0.0300
     16 C16       -11.1138   -0.8927   53.6028 C.2     1  ZINC001318556452   -0.1600
     17 C17       -10.0119   -0.3820   52.7909 C.2     1  ZINC001318556452    0.5300
     18 O18        -9.7896   -0.8784   51.7009 O.2     1  ZINC001318556452   -0.5200
     19 N19        -9.2397    0.6278   53.2284 N.am    1  ZINC001318556452   -0.5200
     20 C20        -8.1450    1.1120   52.3838 C.3     1  ZINC001318556452    0.0600
     21 C21        -9.4574    1.2170   54.4555 C.ar    1  ZINC001318556452    0.1800
     22 C22        -8.6460    2.2618   54.8901 C.ar    1  ZINC001318556452   -0.1700
     23 C23        -8.8748    2.8418   56.1188 C.ar    1  ZINC001318556452   -0.0600
     24 C24        -9.9083    2.3947   56.9304 C.ar    1  ZINC001318556452   -0.1500
     25 C25       -10.7166    1.3709   56.5241 C.ar    1  ZINC001318556452   -0.0600
     26 C26       -10.5066    0.7714   55.2790 C.ar    1  ZINC001318556452   -0.1100
     27 H27       -12.6445   -0.2090   59.0332 H       1  ZINC001318556452    0.0800
     28 H28       -12.2210   -1.5205   60.1595 H       1  ZINC001318556452    0.0800
     29 H29       -11.4175   -1.4142   58.5748 H       1  ZINC001318556452    0.0700
     30 H30       -15.1974   -2.9064   61.2720 H       1  ZINC001318556452    0.1000
     31 H31       -13.5226   -2.3095   61.1873 H       1  ZINC001318556452    0.1300
     32 H32       -14.1015   -0.4114   63.1175 H       1  ZINC001318556452    0.1100
     33 H33       -15.4610    0.7275   62.9659 H       1  ZINC001318556452    0.1100
     34 H34       -15.7763   -1.0083   63.2020 H       1  ZINC001318556452    0.0800
     35 H35       -16.2633   -3.7410   59.3568 H       1  ZINC001318556452    0.1200
     36 H36       -16.1807   -4.3329   56.9697 H       1  ZINC001318556452    0.1300
     37 H37       -14.3378   -3.5134   55.5591 H       1  ZINC001318556452    0.1500
     38 H38       -11.5089   -2.4869   56.2989 H       1  ZINC001318556452    0.4100
     39 H39       -11.7268   -1.7044   53.2398 H       1  ZINC001318556452    0.1600
     40 H40        -8.1189    0.5376   51.4579 H       1  ZINC001318556452    0.1000
     41 H41        -8.3025    2.1657   52.1535 H       1  ZINC001318556452    0.0800
     42 H42        -7.1988    0.9931   52.9119 H       1  ZINC001318556452    0.0800
     43 H43        -7.8393    2.6165   54.2658 H       1  ZINC001318556452    0.1400
     44 H44        -8.2438    3.6518   56.4538 H       1  ZINC001318556452    0.1300
     45 H45       -10.0744    2.8594   57.8911 H       1  ZINC001318556452    0.1300
     46 H46       -11.5186    1.0287   57.1613 H       1  ZINC001318556452    0.1700
@<TRIPOS>BOND
     1     1     2    1
     2     1    27    1
     3     1    28    1
     4     1    29    1
     5     2    11   ar
     6     2     3   ar
     7     3     4    1
     8     3     8   ar
     9     4     5    1
    10     4    30    1
    11     4    31    1
    12     5     6    1
    13     5     7    2
    14     6    32    1
    15     6    33    1
    16     6    34    1
    17     8     9   ar
    18     8    35    1
    19     9    10   ar
    20     9    36    1
    21    10    11   ar
    22    10    37    1
    23    11    12    1
    24    12    13   am
    25    12    38    1
    26    13    14    2
    27    13    15    1
    28    15    26    1
    29    15    16    2
    30    16    17    1
    31    16    39    1
    32    17    18    2
    33    17    19   am
    34    19    20    1
    35    19    21    1
    36    20    40    1
    37    20    41    1
    38    20    42    1
    39    21    26   ar
    40    21    22   ar
    41    22    23   ar
    42    22    43    1
    43    23    24   ar
    44    23    44    1
    45    24    25   ar
    46    24    45    1
    47    25    26   ar
    48    25    46    1
@<TRIPOS>SUBSTRUCTURE
     1 ZINC001318556452        1 TEMP              0 ****  ****    0 ROOT


##########                                Name:    ZINC000962855438
##########                DOCK_Rotatable_Bonds:                   7
##########                         Heavy_Atoms:                  27
##########                    Molecular_Weight:             370.448
##########                DOCK_Rotatable_Bonds:                   7
##########                       Formal_Charge:           0.0300005
##########                     HBond_Acceptors:                   6
##########                        HBond_Donors:                   2
##########                         Heavy_Atoms:                  27
##########                          Grid_Score:          -27.196798
##########                     Grid_vdw_energy:          -26.852909
##########                      Grid_es_energy:           -0.343889
##########           Internal_energy_repulsive:            9.245776

@<TRIPOS>MOLECULE
ZINC000962855438
 53 56 1 0 0
SMALL
USER_CHARGES


@<TRIPOS>ATOM
      1 C1          3.9135    2.0242   46.0893 C.3     1  ZINC000962855438   -0.1100
      2 C2          2.7602    2.7533   45.4493 C.2     1  ZINC000962855438   -0.1700
      3 C3          1.4960    2.9177   46.1831 C.2     1  ZINC000962855438    0.5600
      4 O4          0.5580    3.4871   45.6585 O.2     1  ZINC000962855438   -0.5400
      5 N5          1.3769    2.4374   47.4367 N.am    1  ZINC000962855438   -0.7100
      6 C6          0.1184    2.6026   48.1681 C.3     1  ZINC000962855438    0.1500
      7 H7         -0.7121    2.7639   47.4809 H       1  ZINC000962855438    0.1200
      8 C8          0.2210    3.7572   49.1958 C.3     1  ZINC000962855438    0.1000
      9 N9         -0.7851    3.4369   50.2247 N.am    1  ZINC000962855438   -0.6100
     10 C10        -1.3803    4.3256   51.0448 C.2     1  ZINC000962855438    0.5800
     11 O11        -1.0973    5.5058   50.9704 O.2     1  ZINC000962855438   -0.5200
     12 C12        -2.3750    3.8664   52.0329 C.ar    1  ZINC000962855438   -0.1500
     13 C13        -3.6954    3.6428   51.6426 C.ar    1  ZINC000962855438   -0.0600
     14 C14        -4.6272    3.2146   52.5636 C.ar    1  ZINC000962855438   -0.1500
     15 C15        -4.2535    3.0088   53.8823 C.ar    1  ZINC000962855438   -0.0500
     16 C16        -2.9534    3.2293   54.2789 C.ar    1  ZINC000962855438   -0.1800
     17 C17        -1.9922    3.6478   53.3687 C.ar    1  ZINC000962855438    0.1600
     18 O18        -0.7769    3.7829   53.9611 O.3     1  ZINC000962855438   -0.2800
     19 C19        -0.9523    3.8895   55.3841 C.3     1  ZINC000962855438    0.0700
     20 H20        -1.0614    4.9321   55.6829 H       1  ZINC000962855438    0.0900
     21 C21         0.2155    3.2349   56.1248 C.3     1  ZINC000962855438   -0.1500
     22 C22        -2.2652    3.1042   55.6248 C.3     1  ZINC000962855438   -0.1100
     23 C23        -1.0323    1.9878   50.2075 C.3     1  ZINC000962855438    0.0700
     24 C24        -0.1522    1.3855   49.0915 C.3     1  ZINC000962855438    0.0900
     25 H25        -0.6909    0.6048   48.5544 H       1  ZINC000962855438    0.0900
     26 O26         1.0689    0.8751   49.6308 O.3     1  ZINC000962855438   -0.5600
     27 C27         2.8856    3.2482   44.2213 C.2     1  ZINC000962855438   -0.0600
     28 C28         2.0095    4.0197   43.2571 C.3     1  ZINC000962855438   -0.1000
     29 C29         2.8461    3.4123   42.1201 C.3     1  ZINC000962855438   -0.1400
     30 C30         3.9701    3.2973   43.1660 C.3     1  ZINC000962855438   -0.1100
     31 H31         3.8488    0.9625   45.8515 H       1  ZINC000962855438    0.0700
     32 H32         4.8529    2.4253   45.7087 H       1  ZINC000962855438    0.0700
     33 H33         3.8728    2.1577   47.1703 H       1  ZINC000962855438    0.0700
     34 H34         2.1247    1.9822   47.8546 H       1  ZINC000962855438    0.4100
     35 H35         1.2177    3.7860   49.6359 H       1  ZINC000962855438    0.0800
     36 H36        -0.0125    4.7099   48.7206 H       1  ZINC000962855438    0.0900
     37 H37        -3.9885    3.8059   50.6161 H       1  ZINC000962855438    0.1400
     38 H38        -5.6482    3.0400   52.2579 H       1  ZINC000962855438    0.1400
     39 H39        -4.9856    2.6743   54.6024 H       1  ZINC000962855438    0.1300
     40 H40         1.1424    3.7471   55.8668 H       1  ZINC000962855438    0.0700
     41 H41         0.0489    3.3047   57.1997 H       1  ZINC000962855438    0.0800
     42 H42         0.2872    2.1864   55.8357 H       1  ZINC000962855438    0.0700
     43 H43        -2.8613    3.5726   56.4079 H       1  ZINC000962855438    0.1000
     44 H44        -2.0570    2.0619   55.8663 H       1  ZINC000962855438    0.1000
     45 H45        -0.7602    1.5539   51.1697 H       1  ZINC000962855438    0.0800
     46 H46        -2.0836    1.7935   49.9950 H       1  ZINC000962855438    0.0800
     47 H47         0.9536    0.1087   50.2089 H       1  ZINC000962855438    0.3900
     48 H48         0.9698    3.6924   43.2557 H       1  ZINC000962855438    0.0900
     49 H49         2.1129    5.1012   43.3442 H       1  ZINC000962855438    0.1000
     50 H50         2.4723    2.4530   41.7623 H       1  ZINC000962855438    0.0900
     51 H51         3.0677    4.1120   41.3143 H       1  ZINC000962855438    0.0800
     52 H52         4.6020    4.1835   43.2258 H       1  ZINC000962855438    0.1000
     53 H53         4.5430    2.3731   43.0902 H       1  ZINC000962855438    0.0800
@<TRIPOS>BOND
     1     1     2    1
     2     1    31    1
     3     1    32    1
     4     1    33    1
     5     2     3    1
     6     2    27    2
     7     3     4    2
     8     3     5   am
     9     5     6    1
    10     5    34    1
    11     6     7    1
    12     6    24    1
    13     6     8    1
    14     8     9    1
    15     8    35    1
    16     8    36    1
    17     9    10   am
    18     9    23    1
    19    10    11    2
    20    10    12    1
    21    12    17   ar
    22    12    13   ar
    23    13    14   ar
    24    13    37    1
    25    14    15   ar
    26    14    38    1
    27    15    16   ar
    28    15    39    1
    29    16    22    1
    30    16    17   ar
    31    17    18    1
    32    18    19    1
    33    19    20    1
    34    19    21    1
    35    19    22    1
    36    21    40    1
    37    21    41    1
    38    21    42    1
    39    22    43    1
    40    22    44    1
    41    23    24    1
    42    23    45    1
    43    23    46    1
    44    24    25    1
    45    24    26    1
    46    26    47    1
    47    27    30    1
    48    27    28    1
    49    28    29    1
    50    28    48    1
    51    28    49    1
    52    29    30    1
    53    29    50    1
    54    29    51    1
    55    30    52    1
    56    30    53    1
@<TRIPOS>SUBSTRUCTURE
     1 ZINC000962855438        1 TEMP              0 ****  ****    0 ROOT


##########                                Name:    ZINC000543020509
##########                DOCK_Rotatable_Bonds:                   5
##########                         Heavy_Atoms:                  26
##########                    Molecular_Weight:              366.81
##########                DOCK_Rotatable_Bonds:                   5
##########                       Formal_Charge:               -0.02
##########                     HBond_Acceptors:                   8
##########                        HBond_Donors:                   1
##########                         Heavy_Atoms:                  26
##########                          Grid_Score:          -27.177958
##########                     Grid_vdw_energy:          -26.980606
##########                      Grid_es_energy:           -0.197351
##########           Internal_energy_repulsive:           16.877863

@<TRIPOS>MOLECULE
ZINC000543020509
 41 43 1 0 0
SMALL
USER_CHARGES


@<TRIPOS>ATOM
      1 C1         -1.7754    4.0092   54.7479 C.3     1  ZINC000543020509    0.0800
      2 N2         -2.5523    3.9376   53.5079 N.pl3   1  ZINC000543020509   -0.6200
      3 C3         -1.9363    4.3187   52.2346 C.3     1  ZINC000543020509    0.0900
      4 C4         -3.8758    3.5075   53.5397 C.ar    1  ZINC000543020509    0.2500
      5 C5         -4.5895    3.3048   52.3597 C.ar    1  ZINC000543020509   -0.2200
      6 C6         -5.9024    2.8768   52.4289 C.ar    1  ZINC000543020509    0.1400
      7 N7         -6.4841    2.6593   53.5895 N.ar    1  ZINC000543020509   -0.5000
      8 C8         -5.8429    2.8391   54.7393 C.ar    1  ZINC000543020509    0.1100
      9 C9         -6.5435    2.5796   56.0184 C.2     1  ZINC000543020509    0.5900
     10 O10        -5.9848    2.8049   57.0739 O.2     1  ZINC000543020509   -0.5000
     11 N11        -7.8005    2.0934   56.0118 N.am    1  ZINC000543020509   -0.6200
     12 C12        -8.4630    1.8498   57.2203 C.2     1  ZINC000543020509    0.3200
     13 N13        -7.8970    1.7369   58.3991 N.2     1  ZINC000543020509   -0.3100
     14 N14        -8.9012    1.4970   59.3459 N.pl3   1  ZINC000543020509   -0.3300
     15 C15        -8.7110    1.3181   60.7184 C.ar    1  ZINC000543020509    0.2200
     16 C16        -8.7656    2.4062   61.5767 C.ar    1  ZINC000543020509   -0.1300
     17 C17        -8.5776    2.2280   62.9336 C.ar    1  ZINC000543020509   -0.0500
     18 C18        -8.3333    0.9646   63.4475 C.ar    1  ZINC000543020509   -0.0600
     19 Cl19       -8.0989    0.7565   65.1550 Cl      1  ZINC000543020509   -0.0500
     20 C20        -8.2760   -0.1292   62.6078 C.ar    1  ZINC000543020509   -0.0400
     21 C21        -8.4697    0.0362   61.2350 C.ar    1  ZINC000543020509   -0.0200
     22 C22        -8.4116   -1.0944   60.3581 C.1     1  ZINC000543020509    0.2500
     23 N23        -8.3655   -1.9913   59.6625 N.1     1  ZINC000543020509   -0.3800
     24 C24       -10.0928    1.4695   58.6937 C.2     1  ZINC000543020509    0.0700
     25 C25        -9.8497    1.6898   57.3821 C.2     1  ZINC000543020509   -0.2400
     26 C26        -4.5191    3.2631   54.7529 C.ar    1  ZINC000543020509   -0.1800
     27 H27        -1.8944    4.9962   55.1948 H       1  ZINC000543020509    0.0600
     28 H28        -2.1315    3.2498   55.4442 H       1  ZINC000543020509    0.0700
     29 H29        -0.7223    3.8347   54.5274 H       1  ZINC000543020509    0.0700
     30 H30        -0.9047    4.6255   52.4074 H       1  ZINC000543020509    0.0800
     31 H31        -1.9529    3.4676   51.5538 H       1  ZINC000543020509    0.0600
     32 H32        -2.4927    5.1465   51.7951 H       1  ZINC000543020509    0.0600
     33 H33        -4.1223    3.4805   51.4020 H       1  ZINC000543020509    0.1400
     34 H34        -6.4591    2.7189   51.5171 H       1  ZINC000543020509    0.1700
     35 H35        -8.2461    1.9125   55.1695 H       1  ZINC000543020509    0.4300
     36 H36        -8.9553    3.3941   61.1837 H       1  ZINC000543020509    0.1500
     37 H37        -8.6208    3.0786   63.5977 H       1  ZINC000543020509    0.1500
     38 H38        -8.0854   -1.1122   63.0125 H       1  ZINC000543020509    0.1500
     39 H39       -11.0611    1.3053   59.1431 H       1  ZINC000543020509    0.1900
     40 H40       -10.5898    1.7293   56.5967 H       1  ZINC000543020509    0.1800
     41 H41        -3.9992    3.4084   55.6884 H       1  ZINC000543020509    0.1500
@<TRIPOS>BOND
     1     1     2    1
     2     1    27    1
     3     1    28    1
     4     1    29    1
     5     2     3    1
     6     2     4    1
     7     3    30    1
     8     3    31    1
     9     3    32    1
    10     4    26   ar
    11     4     5   ar
    12     5     6   ar
    13     5    33    1
    14     6     7   ar
    15     6    34    1
    16     7     8   ar
    17     8     9    1
    18     8    26   ar
    19     9    10    2
    20     9    11   am
    21    11    12    1
    22    11    35    1
    23    12    25    1
    24    12    13    2
    25    13    14    1
    26    14    15    1
    27    14    24    1
    28    15    21   ar
    29    15    16   ar
    30    16    17   ar
    31    16    36    1
    32    17    18   ar
    33    17    37    1
    34    18    19    1
    35    18    20   ar
    36    20    21   ar
    37    20    38    1
    38    21    22    1
    39    22    23    3
    40    24    25    2
    41    24    39    1
    42    25    40    1
    43    26    41    1
@<TRIPOS>SUBSTRUCTURE
     1 ZINC000543020509        1 TEMP              0 ****  ****    0 ROOT


##########                                Name:    ZINC001344051361
##########                DOCK_Rotatable_Bonds:                   8
##########                         Heavy_Atoms:                  28
##########                    Molecular_Weight:             379.456
##########                DOCK_Rotatable_Bonds:                   8
##########                       Formal_Charge:          -0.0100006
##########                     HBond_Acceptors:                   5
##########                        HBond_Donors:                   0
##########                         Heavy_Atoms:                  28
##########                          Grid_Score:          -27.176971
##########                     Grid_vdw_energy:          -26.872004
##########                      Grid_es_energy:           -0.304969
##########           Internal_energy_repulsive:           15.959014

@<TRIPOS>MOLECULE
ZINC001344051361
 53 56 1 0 0
SMALL
USER_CHARGES


@<TRIPOS>ATOM
      1 O1         -9.9602   -1.0184   52.2642 O.2     1  ZINC001344051361   -0.4800
      2 C2        -10.8749   -0.2694   52.5137 C.2     1  ZINC001344051361    0.4800
      3 O3        -11.7958   -0.6154   53.4269 O.3     1  ZINC001344051361   -0.3500
      4 C4        -11.3859   -1.5590   54.4516 C.3     1  ZINC001344051361    0.0700
      5 C5        -12.2781   -1.3936   55.6835 C.3     1  ZINC001344051361   -0.1000
      6 H6        -12.3613   -0.3358   55.9331 H       1  ZINC001344051361    0.0900
      7 C7        -13.6687   -1.9594   55.3868 C.3     1  ZINC001344051361   -0.1200
      8 C8        -14.5715   -1.7649   56.6070 C.3     1  ZINC001344051361   -0.1300
      9 C9        -13.9837   -2.5269   57.7988 C.3     1  ZINC001344051361    0.0800
     10 N10       -12.5949   -2.0916   58.0001 N.am    1  ZINC001344051361   -0.6100
     11 C11       -12.1825   -1.6462   59.2034 C.2     1  ZINC001344051361    0.5600
     12 O12       -12.9622   -1.6018   60.1349 O.2     1  ZINC001344051361   -0.5300
     13 C13       -10.7818   -1.2115   59.3905 C.ar    1  ZINC001344051361   -0.1300
     14 C14       -10.4754    0.1473   59.4784 C.ar    1  ZINC001344051361   -0.1000
     15 C15        -9.1663    0.5462   59.6534 C.ar    1  ZINC001344051361   -0.1300
     16 C16        -8.1584   -0.3974   59.7413 C.ar    1  ZINC001344051361   -0.0900
     17 C17        -8.4552   -1.7460   59.6546 C.ar    1  ZINC001344051361   -0.1300
     18 C18        -9.7609   -2.1585   59.4858 C.ar    1  ZINC001344051361   -0.0600
     19 C19       -11.6638   -2.1509   56.8651 C.3     1  ZINC001344051361    0.1200
     20 C20       -10.9782    1.0562   51.8044 C.3     1  ZINC001344051361    0.0200
     21 O21        -9.7382    1.7239   51.5622 O.3     1  ZINC001344051361   -0.2500
     22 C22        -8.9571    1.9857   52.6430 C.ar    1  ZINC001344051361    0.1200
     23 C23        -7.5850    2.1247   52.4914 C.ar    1  ZINC001344051361   -0.2000
     24 C24        -6.7932    2.3913   53.5915 C.ar    1  ZINC001344051361   -0.0800
     25 C25        -7.3670    2.5192   54.8431 C.ar    1  ZINC001344051361   -0.1500
     26 C26        -8.7340    2.3808   54.9968 C.ar    1  ZINC001344051361   -0.0800
     27 C27        -9.5309    2.1203   53.8989 C.ar    1  ZINC001344051361   -0.1400
     28 C28       -12.0815    1.2122   50.7559 C.3     1  ZINC001344051361   -0.1700
     29 C29       -12.2014    1.9247   52.1046 C.3     1  ZINC001344051361   -0.1100
     30 H30       -11.4802   -2.5751   54.0685 H       1  ZINC001344051361    0.0800
     31 H31       -10.3483   -1.3692   54.7263 H       1  ZINC001344051361    0.0800
     32 H32       -14.0977   -1.4383   54.5308 H       1  ZINC001344051361    0.0700
     33 H33       -13.5876   -3.0226   55.1609 H       1  ZINC001344051361    0.0700
     34 H34       -14.6333   -0.7037   56.8485 H       1  ZINC001344051361    0.0700
     35 H35       -15.5683   -2.1469   56.3867 H       1  ZINC001344051361    0.0800
     36 H36       -14.5674   -2.3119   58.6939 H       1  ZINC001344051361    0.1100
     37 H37       -14.0051   -3.5974   57.5945 H       1  ZINC001344051361    0.0700
     38 H38       -11.2612    0.8849   59.4090 H       1  ZINC001344051361    0.1400
     39 H39        -8.9279    1.5973   59.7215 H       1  ZINC001344051361    0.1300
     40 H40        -7.1351   -0.0799   59.8780 H       1  ZINC001344051361    0.1300
     41 H41        -7.6637   -2.4775   59.7237 H       1  ZINC001344051361    0.1300
     42 H42        -9.9913   -3.2115   59.4186 H       1  ZINC001344051361    0.1300
     43 H43       -11.4958   -3.1906   56.5842 H       1  ZINC001344051361    0.0700
     44 H44       -10.7172   -1.6881   57.1444 H       1  ZINC001344051361    0.1000
     45 H45        -7.1364    2.0241   51.5141 H       1  ZINC001344051361    0.1300
     46 H46        -5.7251    2.4995   53.4740 H       1  ZINC001344051361    0.1300
     47 H47        -6.7461    2.7273   55.7020 H       1  ZINC001344051361    0.1300
     48 H48        -9.1797    2.4807   55.9755 H       1  ZINC001344051361    0.1300
     49 H49       -10.5987    2.0122   54.0195 H       1  ZINC001344051361    0.1300
     50 H50       -11.8618    1.8243   49.8812 H       1  ZINC001344051361    0.1200
     51 H51       -12.7327    0.3562   50.5793 H       1  ZINC001344051361    0.1200
     52 H52       -12.9315    1.5374   52.8153 H       1  ZINC001344051361    0.1200
     53 H53       -12.0605    3.0055   52.1172 H       1  ZINC001344051361    0.1200
@<TRIPOS>BOND
     1     1     2    2
     2     2     3    1
     3     2    20    1
     4     3     4    1
     5     4     5    1
     6     4    30    1
     7     4    31    1
     8     5     6    1
     9     5    19    1
    10     5     7    1
    11     7     8    1
    12     7    32    1
    13     7    33    1
    14     8     9    1
    15     8    34    1
    16     8    35    1
    17     9    10    1
    18     9    36    1
    19     9    37    1
    20    10    11   am
    21    10    19    1
    22    11    12    2
    23    11    13    1
    24    13    18   ar
    25    13    14   ar
    26    14    15   ar
    27    14    38    1
    28    15    16   ar
    29    15    39    1
    30    16    17   ar
    31    16    40    1
    32    17    18   ar
    33    17    41    1
    34    18    42    1
    35    19    43    1
    36    19    44    1
    37    20    29    1
    38    20    21    1
    39    20    28    1
    40    21    22    1
    41    22    27   ar
    42    22    23   ar
    43    23    24   ar
    44    23    45    1
    45    24    25   ar
    46    24    46    1
    47    25    26   ar
    48    25    47    1
    49    26    27   ar
    50    26    48    1
    51    27    49    1
    52    28    29    1
    53    28    50    1
    54    28    51    1
    55    29    52    1
    56    29    53    1
@<TRIPOS>SUBSTRUCTURE
     1 ZINC001344051361        1 TEMP              0 ****  ****    0 ROOT


##########                                Name:    ZINC000481050680
##########                DOCK_Rotatable_Bonds:                   7
##########                         Heavy_Atoms:                  29
##########                    Molecular_Weight:              412.46
##########                DOCK_Rotatable_Bonds:                   7
##########                       Formal_Charge:          -0.0199997
##########                     HBond_Acceptors:                   7
##########                        HBond_Donors:                   1
##########                         Heavy_Atoms:                  29
##########                          Grid_Score:          -27.165272
##########                     Grid_vdw_energy:          -25.238880
##########                      Grid_es_energy:           -1.926393
##########           Internal_energy_repulsive:            9.276836

@<TRIPOS>MOLECULE
ZINC000481050680
 47 49 1 0 0
SMALL
USER_CHARGES


@<TRIPOS>ATOM
      1 N1        -15.1283   -2.7277   60.7738 N.1     1  ZINC000481050680   -0.3900
      2 C2        -14.0459   -2.4150   60.6290 C.1     1  ZINC000481050680    0.2500
      3 C3        -12.6812   -2.0209   60.4465 C.ar    1  ZINC000481050680    0.0200
      4 C4        -12.1331   -1.0072   61.2344 C.ar    1  ZINC000481050680   -0.0800
      5 C5        -10.8176   -0.6317   61.0547 C.ar    1  ZINC000481050680   -0.0800
      6 C6        -10.0409   -1.2568   60.0963 C.ar    1  ZINC000481050680   -0.1000
      7 C7         -8.6049   -0.8410   59.9061 C.3     1  ZINC000481050680   -0.5900
      8 S8         -8.5324    0.5947   58.7998 S.o2    1  ZINC000481050680    2.6000
      9 O9         -8.9924    1.7620   59.4669 O.2     1  ZINC000481050680   -0.9300
     10 O10        -7.3134    0.6005   58.0695 O.2     1  ZINC000481050680   -0.9400
     11 N11        -9.6920    0.2941   57.6563 N.am    1  ZINC000481050680   -1.1100
     12 C12        -9.9238    1.2575   56.5772 C.3     1  ZINC000481050680    0.2100
     13 H13        -9.1397    2.0145   56.5915 H       1  ZINC000481050680    0.1000
     14 C14       -11.2843    1.9286   56.7762 C.3     1  ZINC000481050680   -0.0800
     15 C15       -11.3778    3.1461   55.8931 C.ar    1  ZINC000481050680   -0.0900
     16 C16       -12.3372    3.2074   54.8998 C.ar    1  ZINC000481050680   -0.1200
     17 C17       -12.4230    4.3241   54.0896 C.ar    1  ZINC000481050680   -0.1200
     18 C18       -11.5495    5.3798   54.2730 C.ar    1  ZINC000481050680   -0.1200
     19 C19       -10.5906    5.3188   55.2668 C.ar    1  ZINC000481050680   -0.1200
     20 C20       -10.5077    4.2039   56.0798 C.ar    1  ZINC000481050680   -0.1200
     21 C21        -9.9062    0.5409   55.2518 C.ar    1  ZINC000481050680   -0.1300
     22 C22       -10.8111   -0.4732   55.0022 C.ar    1  ZINC000481050680   -0.0700
     23 C23       -10.7951   -1.1309   53.7860 C.ar    1  ZINC000481050680   -0.1300
     24 C24        -9.8739   -0.7753   52.8189 C.ar    1  ZINC000481050680   -0.0900
     25 C25        -8.9674    0.2383   53.0665 C.ar    1  ZINC000481050680   -0.1500
     26 C26        -8.9867    0.9020   54.2812 C.ar    1  ZINC000481050680    0.1100
     27 F27        -8.1013    1.8930   54.5243 F       1  ZINC000481050680   -0.1400
     28 C28       -10.5774   -2.2644   59.3102 C.ar    1  ZINC000481050680    0.1200
     29 F29        -9.8125   -2.8710   58.3762 F       1  ZINC000481050680   -0.1200
     30 C30       -11.8918   -2.6529   59.4837 C.ar    1  ZINC000481050680   -0.1000
     31 H31       -12.7378   -0.5173   61.9834 H       1  ZINC000481050680    0.1500
     32 H32       -10.3933    0.1527   61.6639 H       1  ZINC000481050680    0.1500
     33 H33        -8.1718   -0.5782   60.8713 H       1  ZINC000481050680    0.1500
     34 H34        -8.0428   -1.6659   59.4682 H       1  ZINC000481050680    0.1500
     35 H35       -10.2178   -0.5199   57.7011 H       1  ZINC000481050680    0.4200
     36 H36       -12.0768    1.2278   56.5140 H       1  ZINC000481050680    0.0900
     37 H37       -11.3932    2.2268   57.8189 H       1  ZINC000481050680    0.0900
     38 H38       -13.0196    2.3826   54.7565 H       1  ZINC000481050680    0.1200
     39 H39       -13.1721    4.3717   53.3132 H       1  ZINC000481050680    0.1200
     40 H40       -11.6160    6.2520   53.6395 H       1  ZINC000481050680    0.1200
     41 H41        -9.9079    6.1434   55.4098 H       1  ZINC000481050680    0.1200
     42 H42        -9.7585    4.1563   56.8562 H       1  ZINC000481050680    0.1200
     43 H43       -11.5309   -0.7522   55.7574 H       1  ZINC000481050680    0.1300
     44 H44       -11.5028   -1.9232   53.5919 H       1  ZINC000481050680    0.1300
     45 H45        -9.8621   -1.2900   51.8694 H       1  ZINC000481050680    0.1300
     46 H46        -8.2472    0.5154   52.3108 H       1  ZINC000481050680    0.1400
     47 H47       -12.3097   -3.4382   58.8714 H       1  ZINC000481050680    0.1600
@<TRIPOS>BOND
     1     1     2    3
     2     2     3    1
     3     3    30   ar
     4     3     4   ar
     5     4     5   ar
     6     4    31    1
     7     5     6   ar
     8     5    32    1
     9     6     7    1
    10     6    28   ar
    11     7     8    1
    12     7    33    1
    13     7    34    1
    14     8     9    2
    15     8    10    2
    16     8    11   am
    17    11    12    1
    18    11    35    1
    19    12    13    1
    20    12    14    1
    21    12    21    1
    22    14    15    1
    23    14    36    1
    24    14    37    1
    25    15    20   ar
    26    15    16   ar
    27    16    17   ar
    28    16    38    1
    29    17    18   ar
    30    17    39    1
    31    18    19   ar
    32    18    40    1
    33    19    20   ar
    34    19    41    1
    35    20    42    1
    36    21    26   ar
    37    21    22   ar
    38    22    23   ar
    39    22    43    1
    40    23    24   ar
    41    23    44    1
    42    24    25   ar
    43    24    45    1
    44    25    26   ar
    45    25    46    1
    46    26    27    1
    47    28    29    1
    48    28    30   ar
    49    30    47    1
@<TRIPOS>SUBSTRUCTURE
     1 ZINC000481050680        1 TEMP              0 ****  ****    0 ROOT


##########                                Name:    ZINC000279331220
##########                DOCK_Rotatable_Bonds:                   9
##########                         Heavy_Atoms:                  24
##########                    Molecular_Weight:             328.411
##########                DOCK_Rotatable_Bonds:                   9
##########                       Formal_Charge:          -0.0100001
##########                     HBond_Acceptors:                   5
##########                        HBond_Donors:                   0
##########                         Heavy_Atoms:                  24
##########                          Grid_Score:          -27.163734
##########                     Grid_vdw_energy:          -26.840315
##########                      Grid_es_energy:           -0.323419
##########           Internal_energy_repulsive:           18.489111

@<TRIPOS>MOLECULE
ZINC000279331220
 48 49 1 0 0
SMALL
USER_CHARGES


@<TRIPOS>ATOM
      1 C1         -6.4017    2.0930   50.7845 C.3     1  ZINC000279331220   -0.1500
      2 C2         -5.6197    2.5650   52.0118 C.3     1  ZINC000279331220    0.0500
      3 O3         -4.2256    2.6078   51.7008 O.3     1  ZINC000279331220   -0.3000
      4 C4         -3.3908    3.0709   52.6694 C.ar    1  ZINC000279331220    0.1000
      5 C5         -3.8409    3.1923   53.9739 C.ar    1  ZINC000279331220   -0.1700
      6 C6         -2.9907    3.6629   54.9577 C.ar    1  ZINC000279331220   -0.1200
      7 C7         -1.6914    4.0135   54.6427 C.ar    1  ZINC000279331220   -0.1200
      8 C8         -1.2359    3.8952   53.3424 C.ar    1  ZINC000279331220   -0.1700
      9 C9         -2.0805    3.4185   52.3534 C.ar    1  ZINC000279331220    0.1000
     10 O10        -1.6341    3.3016   51.0741 O.3     1  ZINC000279331220   -0.3000
     11 C11        -0.2387    3.0516   50.8941 C.3     1  ZINC000279331220    0.0600
     12 C12         0.0055    2.5155   49.4822 C.3     1  ZINC000279331220   -0.1100
     13 C13         1.3173    1.7287   49.4552 C.3     1  ZINC000279331220   -0.1300
     14 C14         1.8087    1.6199   48.0347 C.2     1  ZINC000279331220    0.5200
     15 O15         1.3703    2.3632   47.1828 O.2     1  ZINC000279331220   -0.5200
     16 N16         2.7355    0.6964   47.7111 N.am    1  ZINC000279331220   -0.5700
     17 C17         3.2144    0.5920   46.3305 C.3     1  ZINC000279331220    0.0800
     18 C18         3.2385   -0.1593   48.6899 C.ar    1  ZINC000279331220    0.3400
     19 N19         2.5562   -1.2417   49.0280 N.ar    1  ZINC000279331220   -0.4800
     20 C20         2.9962   -2.0775   49.9491 C.ar    1  ZINC000279331220    0.1100
     21 C21         4.1938   -1.8500   50.5976 C.ar    1  ZINC000279331220   -0.1600
     22 C22         4.9401   -0.7254   50.2719 C.ar    1  ZINC000279331220   -0.0700
     23 C23         4.4551    0.1293   49.2980 C.ar    1  ZINC000279331220   -0.1200
     24 C24         5.2294    1.3625   48.9097 C.3     1  ZINC000279331220   -0.1100
     25 H25        -7.4650    2.0604   51.0217 H       1  ZINC000279331220    0.0800
     26 H26        -6.2346    2.7851   49.9590 H       1  ZINC000279331220    0.0700
     27 H27        -6.0625    1.0974   50.4982 H       1  ZINC000279331220    0.0700
     28 H28        -5.9588    3.5605   52.2980 H       1  ZINC000279331220    0.0600
     29 H29        -5.7867    1.8729   52.8373 H       1  ZINC000279331220    0.0600
     30 H30        -4.8559    2.9196   54.2224 H       1  ZINC000279331220    0.1300
     31 H31        -3.3428    3.7570   55.9743 H       1  ZINC000279331220    0.1300
     32 H32        -1.0305    4.3809   55.4139 H       1  ZINC000279331220    0.1300
     33 H33        -0.2203    4.1704   53.0989 H       1  ZINC000279331220    0.1300
     34 H34         0.3172    3.9790   51.0319 H       1  ZINC000279331220    0.0600
     35 H35         0.0957    2.3156   51.6252 H       1  ZINC000279331220    0.0600
     36 H36        -0.8171    1.8604   49.1949 H       1  ZINC000279331220    0.0800
     37 H37         0.0673    3.3491   48.7826 H       1  ZINC000279331220    0.0800
     38 H38         2.0633    2.2452   50.0592 H       1  ZINC000279331220    0.1000
     39 H39         1.1505    0.7302   49.8594 H       1  ZINC000279331220    0.1000
     40 H40         4.0190    1.3095   46.1698 H       1  ZINC000279331220    0.0700
     41 H41         3.5859   -0.4168   46.1501 H       1  ZINC000279331220    0.0800
     42 H42         2.3948    0.8055   45.6445 H       1  ZINC000279331220    0.0800
     43 H43         2.4120   -2.9507   50.1995 H       1  ZINC000279331220    0.1600
     44 H44         4.5461   -2.5394   51.3506 H       1  ZINC000279331220    0.1400
     45 H45         5.8800   -0.5248   50.7645 H       1  ZINC000279331220    0.1400
     46 H46         5.8466    1.1445   48.0381 H       1  ZINC000279331220    0.0800
     47 H47         4.5346    2.1675   48.6707 H       1  ZINC000279331220    0.0700
     48 H48         5.8672    1.6672   49.7394 H       1  ZINC000279331220    0.0700
@<TRIPOS>BOND
     1     1     2    1
     2     1    25    1
     3     1    26    1
     4     1    27    1
     5     2     3    1
     6     2    28    1
     7     2    29    1
     8     3     4    1
     9     4     9   ar
    10     4     5   ar
    11     5     6   ar
    12     5    30    1
    13     6     7   ar
    14     6    31    1
    15     7     8   ar
    16     7    32    1
    17     8     9   ar
    18     8    33    1
    19     9    10    1
    20    10    11    1
    21    11    12    1
    22    11    34    1
    23    11    35    1
    24    12    13    1
    25    12    36    1
    26    12    37    1
    27    13    14    1
    28    13    38    1
    29    13    39    1
    30    14    15    2
    31    14    16   am
    32    16    17    1
    33    16    18    1
    34    17    40    1
    35    17    41    1
    36    17    42    1
    37    18    23   ar
    38    18    19   ar
    39    19    20   ar
    40    20    21   ar
    41    20    43    1
    42    21    22   ar
    43    21    44    1
    44    22    23   ar
    45    22    45    1
    46    23    24    1
    47    24    46    1
    48    24    47    1
    49    24    48    1
@<TRIPOS>SUBSTRUCTURE
     1 ZINC000279331220        1 TEMP              0 ****  ****    0 ROOT


##########                                Name:    ZINC000546115054
##########                DOCK_Rotatable_Bonds:                  10
##########                         Heavy_Atoms:                  26
##########                    Molecular_Weight:             363.457
##########                DOCK_Rotatable_Bonds:                  10
##########                       Formal_Charge:        -4.39584e-07
##########                     HBond_Acceptors:                   7
##########                        HBond_Donors:                   2
##########                         Heavy_Atoms:                  26
##########                          Grid_Score:          -27.163660
##########                     Grid_vdw_energy:          -27.158270
##########                      Grid_es_energy:           -0.005391
##########           Internal_energy_repulsive:           97.211952

@<TRIPOS>MOLECULE
ZINC000546115054
 55 56 1 0 0
SMALL
USER_CHARGES


@<TRIPOS>ATOM
      1 C1         -7.7921   -1.3466   59.9358 C.3     1  ZINC000546115054   -0.1500
      2 C2         -9.3083   -1.3355   60.1405 C.3     1  ZINC000546115054    0.0600
      3 O3         -9.9474   -1.9083   58.9978 O.3     1  ZINC000546115054   -0.3700
      4 C4        -11.3498   -1.6444   58.9230 C.3     1  ZINC000546115054    0.0500
      5 H5        -11.5480   -0.6285   59.2648 H       1  ZINC000546115054    0.0700
      6 C6        -12.1055   -2.6387   59.8085 C.3     1  ZINC000546115054    0.0400
      7 O7        -13.5108   -2.4101   59.6871 O.3     1  ZINC000546115054   -0.3700
      8 C8        -14.0187   -2.5879   58.3633 C.3     1  ZINC000546115054    0.0600
      9 C9        -13.3399   -1.5917   57.4198 C.3     1  ZINC000546115054   -0.1600
     10 C10       -11.8231   -1.7986   57.4744 C.3     1  ZINC000546115054    0.1700
     11 H11       -11.5784   -2.7988   57.1168 H       1  ZINC000546115054    0.1000
     12 N12       -11.1616   -0.8008   56.6300 N.am    1  ZINC000546115054   -0.7300
     13 C13       -10.9142   -1.0728   55.3333 C.2     1  ZINC000546115054    0.7200
     14 O14       -11.2386   -2.1468   54.8648 O.2     1  ZINC000546115054   -0.5900
     15 N15       -10.3071   -0.1542   54.5561 N.am    1  ZINC000546115054   -0.7200
     16 C16       -10.0365   -0.4506   53.1470 C.3     1  ZINC000546115054    0.1600
     17 H17        -9.8382   -1.5162   53.0316 H       1  ZINC000546115054    0.1200
     18 C18       -11.2518   -0.0634   52.3020 C.3     1  ZINC000546115054   -0.1000
     19 C19       -11.5825    1.3884   52.5333 C.ar    1  ZINC000546115054   -0.0800
     20 C20       -12.5094    1.7414   53.4964 C.ar    1  ZINC000546115054   -0.1100
     21 C21       -12.8126    3.0732   53.7084 C.ar    1  ZINC000546115054   -0.1200
     22 C22       -12.1891    4.0522   52.9578 C.ar    1  ZINC000546115054   -0.1200
     23 C23       -11.2617    3.6994   51.9954 C.ar    1  ZINC000546115054   -0.1200
     24 C24       -10.9550    2.3679   51.7862 C.ar    1  ZINC000546115054   -0.1100
     25 C25        -8.8354    0.3364   52.6898 C.2     1  ZINC000546115054    0.5000
     26 O26        -8.1196   -0.1031   51.8150 O.2     1  ZINC000546115054   -0.5200
     27 N27        -8.5568    1.5288   53.2530 N.am    1  ZINC000546115054   -0.6200
     28 C28        -9.4225    2.0606   54.3084 C.3     1  ZINC000546115054    0.0800
     29 C29        -7.3882    2.2930   52.8097 C.3     1  ZINC000546115054    0.0700
     30 H30        -7.3046   -0.9096   60.8074 H       1  ZINC000546115054    0.0700
     31 H31        -7.4506   -2.3734   59.8051 H       1  ZINC000546115054    0.0600
     32 H32        -7.5409   -0.7645   59.0491 H       1  ZINC000546115054    0.0600
     33 H33        -9.5595   -1.9176   61.0272 H       1  ZINC000546115054    0.0500
     34 H34        -9.6498   -0.3086   60.2712 H       1  ZINC000546115054    0.0500
     35 H35       -11.8739   -3.6558   59.4924 H       1  ZINC000546115054    0.0600
     36 H36       -11.8034   -2.5030   60.8471 H       1  ZINC000546115054    0.1000
     37 H37       -13.8122   -3.6045   58.0283 H       1  ZINC000546115054    0.0600
     38 H38       -15.0949   -2.4158   58.3607 H       1  ZINC000546115054    0.1000
     39 H39       -13.6934   -1.7552   56.4018 H       1  ZINC000546115054    0.0900
     40 H40       -13.5793   -0.5747   57.7305 H       1  ZINC000546115054    0.0800
     41 H41       -10.9017    0.0555   57.0040 H       1  ZINC000546115054    0.3900
     42 H42       -10.0493    0.7031   54.9295 H       1  ZINC000546115054    0.4000
     43 H43       -11.0260   -0.2211   51.2474 H       1  ZINC000546115054    0.0900
     44 H44       -12.1040   -0.6801   52.5873 H       1  ZINC000546115054    0.1100
     45 H45       -12.9965    0.9765   54.0828 H       1  ZINC000546115054    0.1200
     46 H46       -13.5373    3.3489   54.4604 H       1  ZINC000546115054    0.1200
     47 H47       -12.4267    5.0927   53.1231 H       1  ZINC000546115054    0.1200
     48 H48       -10.7747    4.4643   51.4087 H       1  ZINC000546115054    0.1200
     49 H49       -10.2305    2.0922   51.0342 H       1  ZINC000546115054    0.1200
     50 H50        -9.0609    1.7227   55.2796 H       1  ZINC000546115054    0.0600
     51 H51        -9.4093    3.1500   54.2746 H       1  ZINC000546115054    0.0700
     52 H52       -10.4414    1.7047   54.1562 H       1  ZINC000546115054    0.0800
     53 H53        -7.6746    2.9523   51.9903 H       1  ZINC000546115054    0.0600
     54 H54        -7.0076    2.8888   53.6393 H       1  ZINC000546115054    0.0800
     55 H55        -6.6128    1.6066   52.4696 H       1  ZINC000546115054    0.0700
@<TRIPOS>BOND
     1     1     2    1
     2     1    30    1
     3     1    31    1
     4     1    32    1
     5     2     3    1
     6     2    33    1
     7     2    34    1
     8     3     4    1
     9     4     5    1
    10     4    10    1
    11     4     6    1
    12     6     7    1
    13     6    35    1
    14     6    36    1
    15     7     8    1
    16     8     9    1
    17     8    37    1
    18     8    38    1
    19     9    10    1
    20     9    39    1
    21     9    40    1
    22    10    11    1
    23    10    12    1
    24    12    13   am
    25    12    41    1
    26    13    14    2
    27    13    15   am
    28    15    16    1
    29    15    42    1
    30    16    17    1
    31    16    18    1
    32    16    25    1
    33    18    19    1
    34    18    43    1
    35    18    44    1
    36    19    24   ar
    37    19    20   ar
    38    20    21   ar
    39    20    45    1
    40    21    22   ar
    41    21    46    1
    42    22    23   ar
    43    22    47    1
    44    23    24   ar
    45    23    48    1
    46    24    49    1
    47    25    26    2
    48    25    27   am
    49    27    28    1
    50    27    29    1
    51    28    50    1
    52    28    51    1
    53    28    52    1
    54    29    53    1
    55    29    54    1
    56    29    55    1
@<TRIPOS>SUBSTRUCTURE
     1 ZINC000546115054        1 TEMP              0 ****  ****    0 ROOT


##########                                Name:    ZINC000937331732
##########                DOCK_Rotatable_Bonds:                   6
##########                         Heavy_Atoms:                  24
##########                    Molecular_Weight:              333.35
##########                DOCK_Rotatable_Bonds:                   6
##########                       Formal_Charge:          -0.0299999
##########                     HBond_Acceptors:                  10
##########                        HBond_Donors:                   1
##########                         Heavy_Atoms:                  24
##########                          Grid_Score:          -27.156914
##########                     Grid_vdw_energy:          -27.902000
##########                      Grid_es_energy:            0.745087
##########           Internal_energy_repulsive:           23.727100

@<TRIPOS>MOLECULE
ZINC000937331732
 43 45 1 0 0
SMALL
USER_CHARGES


@<TRIPOS>ATOM
      1 C1        -12.9038    0.6750   53.0063 C.3     1  ZINC000937331732    0.0600
      2 N2        -11.5394    0.1947   53.2386 N.am    1  ZINC000937331732   -0.6100
      3 C3        -10.5412    0.5785   52.4185 C.2     1  ZINC000937331732    0.5000
      4 O4        -10.7727    1.3203   51.4873 O.2     1  ZINC000937331732   -0.5200
      5 C5         -9.1373    0.0859   52.6583 C.3     1  ZINC000937331732    0.1500
      6 N6         -8.1803    1.0930   52.1936 N.am    1  ZINC000937331732   -0.4400
      7 N7         -8.2464    2.4732   52.4294 N.2     1  ZINC000937331732   -0.2800
      8 C8         -7.2254    3.0284   51.8605 C.2     1  ZINC000937331732    0.2600
      9 N9         -6.4749    2.0544   51.2482 N.am    1  ZINC000937331732   -0.5600
     10 C10        -5.2372    2.2719   50.4951 C.3     1  ZINC000937331732    0.1000
     11 C11        -7.0685    0.8634   51.4639 C.2     1  ZINC000937331732    0.6500
     12 O12        -6.6776   -0.2198   51.0666 O.2     1  ZINC000937331732   -0.5500
     13 C13       -11.2602   -0.7029   54.3623 C.3     1  ZINC000937331732    0.1300
     14 H14       -10.3530   -1.2785   54.1780 H       1  ZINC000937331732    0.1200
     15 C15       -11.1437    0.0962   55.6872 C.3     1  ZINC000937331732   -0.1500
     16 C16       -11.5375   -0.9767   56.7330 C.3     1  ZINC000937331732    0.1000
     17 N17       -12.6023   -1.7632   56.0841 N.am    1  ZINC000937331732   -0.6000
     18 C18       -13.5497   -2.4789   56.7217 C.2     1  ZINC000937331732    0.6200
     19 O19       -14.3816   -3.0929   56.0816 O.2     1  ZINC000937331732   -0.5400
     20 C20       -13.5776   -2.5173   58.1951 C.2     1  ZINC000937331732    0.1400
     21 N21       -12.5829   -2.1935   58.9938 N.2     1  ZINC000937331732   -0.4400
     22 C22       -12.9707   -2.3498   60.2574 C.2     1  ZINC000937331732   -0.0300
     23 C23       -14.2537   -2.7872   60.2592 C.2     1  ZINC000937331732   -0.0200
     24 N24       -14.6426   -2.8897   58.9663 N.pl3   1  ZINC000937331732   -0.5200
     25 C25       -12.4581   -1.6401   54.6231 C.3     1  ZINC000937331732    0.1000
     26 H26       -13.4254   -0.0177   52.3458 H       1  ZINC000937331732    0.0700
     27 H27       -13.4333    0.7389   53.9569 H       1  ZINC000937331732    0.0800
     28 H28       -12.8680    1.6612   52.5433 H       1  ZINC000937331732    0.0800
     29 H29        -8.9910   -0.0898   53.7241 H       1  ZINC000937331732    0.1300
     30 H30        -8.9802   -0.8440   52.1118 H       1  ZINC000937331732    0.1300
     31 H31        -7.0002    4.0847   51.8659 H       1  ZINC000937331732    0.2300
     32 H32        -4.9961    3.3349   50.4916 H       1  ZINC000937331732    0.1000
     33 H33        -4.4246    1.7166   50.9635 H       1  ZINC000937331732    0.0800
     34 H34        -5.3701    1.9262   49.4701 H       1  ZINC000937331732    0.0800
     35 H35       -10.1220    0.4410   55.8469 H       1  ZINC000937331732    0.0900
     36 H36       -11.8433    0.9319   55.7022 H       1  ZINC000937331732    0.0800
     37 H37       -10.6831   -1.6128   56.9640 H       1  ZINC000937331732    0.0800
     38 H38       -11.9147   -0.5026   57.6391 H       1  ZINC000937331732    0.1100
     39 H39       -12.3662   -2.1604   61.1322 H       1  ZINC000937331732    0.1800
     40 H40       -14.8544   -3.0090   61.1289 H       1  ZINC000937331732    0.1900
     41 H41       -15.5119   -3.1787   58.6473 H       1  ZINC000937331732    0.4300
     42 H42       -13.3634   -1.2084   54.1964 H       1  ZINC000937331732    0.0800
     43 H43       -12.2703   -2.6205   54.1853 H       1  ZINC000937331732    0.0800
@<TRIPOS>BOND
     1     1     2    1
     2     1    26    1
     3     1    27    1
     4     1    28    1
     5     2     3   am
     6     2    13    1
     7     3     4    2
     8     3     5    1
     9     5     6    1
    10     5    29    1
    11     5    30    1
    12     6    11   am
    13     6     7    1
    14     7     8    2
    15     8     9    1
    16     8    31    1
    17     9    10    1
    18     9    11   am
    19    10    32    1
    20    10    33    1
    21    10    34    1
    22    11    12    2
    23    13    14    1
    24    13    25    1
    25    13    15    1
    26    15    16    1
    27    15    35    1
    28    15    36    1
    29    16    17    1
    30    16    37    1
    31    16    38    1
    32    17    18   am
    33    17    25    1
    34    18    19    2
    35    18    20    1
    36    20    24    1
    37    20    21    2
    38    21    22    1
    39    22    23    2
    40    22    39    1
    41    23    24    1
    42    23    40    1
    43    24    41    1
    44    25    42    1
    45    25    43    1
@<TRIPOS>SUBSTRUCTURE
     1 ZINC000937331732        1 TEMP              0 ****  ****    0 ROOT


##########                                Name:    ZINC000279452407
##########                DOCK_Rotatable_Bonds:                   6
##########                         Heavy_Atoms:                  24
##########                    Molecular_Weight:              375.47
##########                DOCK_Rotatable_Bonds:                   6
##########                       Formal_Charge:          0.00999929
##########                     HBond_Acceptors:                  10
##########                        HBond_Donors:                   3
##########                         Heavy_Atoms:                  24
##########                          Grid_Score:          -27.153021
##########                     Grid_vdw_energy:          -25.787880
##########                      Grid_es_energy:           -1.365142
##########           Internal_energy_repulsive:           27.464746

@<TRIPOS>MOLECULE
ZINC000279452407
 45 47 1 0 0
SMALL
USER_CHARGES


@<TRIPOS>ATOM
      1 C1        -12.4647   -2.0805   60.1790 C.3     1  ZINC000279452407   -0.1600
      2 C2        -13.7790   -1.9507   59.4066 C.3     1  ZINC000279452407    0.0600
      3 H3        -14.1926   -0.9515   59.5434 H       1  ZINC000279452407    0.0700
      4 O4        -14.7187   -2.9375   59.8692 O.3     1  ZINC000279452407   -0.3700
      5 C5        -15.5035   -3.3415   58.7260 C.3     1  ZINC000279452407    0.0500
      6 C6        -14.4643   -3.4077   57.5765 C.3     1  ZINC000279452407   -0.1400
      7 C7        -13.5367   -2.2164   57.9135 C.3     1  ZINC000279452407    0.0700
      8 C8        -12.0804   -2.6062   57.6733 C.3     1  ZINC000279452407    0.1100
      9 N9        -11.2443   -1.4041   57.8300 N.am    1  ZINC000279452407   -0.6300
     10 C10       -10.1438   -1.4195   58.6080 C.2     1  ZINC000279452407    0.7200
     11 O11        -9.8279   -2.4368   59.1941 O.2     1  ZINC000279452407   -0.5800
     12 N12        -9.3934   -0.3073   58.7362 N.am    1  ZINC000279452407   -0.7500
     13 C13        -8.1973   -0.3242   59.5818 C.3     1  ZINC000279452407    0.2000
     14 C14        -8.5920   -0.0769   61.0151 C.2     1  ZINC000279452407   -0.1700
     15 C15        -7.9649   -0.5743   62.0821 C.2     1  ZINC000279452407   -0.1400
     16 C16        -8.5090   -0.2091   63.3013 C.2     1  ZINC000279452407    0.0100
     17 C17        -9.5780    0.5850   63.2245 C.2     1  ZINC000279452407   -0.7900
     18 S18       -10.4794    1.2112   64.6030 S.o2    1  ZINC000279452407    2.7300
     19 N19        -9.7889    2.6560   65.0247 N.am    1  ZINC000279452407   -1.2500
     20 O20       -11.7833    1.5137   64.1258 O.2     1  ZINC000279452407   -0.9600
     21 O21       -10.2340    0.3192   65.6815 O.2     1  ZINC000279452407   -0.9500
     22 S22        -9.9452    0.9181   61.5369 S.3     1  ZINC000279452407    0.2500
     23 C23       -11.6477   -0.1855   57.1103 C.3     1  ZINC000279452407    0.0700
     24 C24       -13.1242    0.0921   57.4145 C.3     1  ZINC000279452407    0.0400
     25 O25       -13.8920   -1.0818   57.1330 O.3     1  ZINC000279452407   -0.3600
     26 H26       -11.7911   -1.2745   59.8878 H       1  ZINC000279452407    0.0700
     27 H27       -12.6642   -2.0187   61.2487 H       1  ZINC000279452407    0.0600
     28 H28       -12.0023   -3.0408   59.9504 H       1  ZINC000279452407    0.0800
     29 H29       -15.9515   -4.3208   58.8950 H       1  ZINC000279452407    0.1000
     30 H30       -16.2716   -2.6000   58.5065 H       1  ZINC000279452407    0.0700
     31 H31       -13.9158   -4.3494   57.6012 H       1  ZINC000279452407    0.1000
     32 H32       -14.9445   -3.2636   56.6087 H       1  ZINC000279452407    0.1000
     33 H33       -11.7782   -3.3599   58.4002 H       1  ZINC000279452407    0.1200
     34 H34       -11.9687   -3.0010   56.6635 H       1  ZINC000279452407    0.0800
     35 H35        -9.6455    0.5044   58.2686 H       1  ZINC000279452407    0.4000
     36 H36        -7.7093   -1.2955   59.5018 H       1  ZINC000279452407    0.1000
     37 H37        -7.5099    0.4558   59.2545 H       1  ZINC000279452407    0.0900
     38 H38        -7.0985   -1.2140   62.0009 H       1  ZINC000279452407    0.1600
     39 H39        -8.0993   -0.5422   64.2435 H       1  ZINC000279452407    0.1600
     40 H40       -10.1445    3.1641   65.7707 H       1  ZINC000279452407    0.4200
     41 H41        -9.0290    2.9943   64.5257 H       1  ZINC000279452407    0.4200
     42 H42       -11.0403    0.6555   57.4447 H       1  ZINC000279452407    0.0900
     43 H43       -11.5160   -0.3327   56.0383 H       1  ZINC000279452407    0.0900
     44 H44       -13.2357    0.3564   58.4661 H       1  ZINC000279452407    0.0600
     45 H45       -13.4757    0.9151   56.7922 H       1  ZINC000279452407    0.1100
@<TRIPOS>BOND
     1     1     2    1
     2     1    26    1
     3     1    27    1
     4     1    28    1
     5     2     3    1
     6     2     7    1
     7     2     4    1
     8     4     5    1
     9     5     6    1
    10     5    29    1
    11     5    30    1
    12     6     7    1
    13     6    31    1
    14     6    32    1
    15     7    25    1
    16     7     8    1
    17     8     9    1
    18     8    33    1
    19     8    34    1
    20     9    10   am
    21     9    23    1
    22    10    11    2
    23    10    12   am
    24    12    13    1
    25    12    35    1
    26    13    14    1
    27    13    36    1
    28    13    37    1
    29    14    22    1
    30    14    15    2
    31    15    16    1
    32    15    38    1
    33    16    17    2
    34    16    39    1
    35    17    18    1
    36    17    22    1
    37    18    19   am
    38    18    20    2
    39    18    21    2
    40    19    40    1
    41    19    41    1
    42    23    24    1
    43    23    42    1
    44    23    43    1
    45    24    25    1
    46    24    44    1
    47    24    45    1
@<TRIPOS>SUBSTRUCTURE
     1 ZINC000279452407        1 TEMP              0 ****  ****    0 ROOT


##########                                Name:    ZINC001191386213
##########                DOCK_Rotatable_Bonds:                   6
##########                         Heavy_Atoms:                  29
##########                    Molecular_Weight:             392.433
##########                DOCK_Rotatable_Bonds:                   6
##########                       Formal_Charge:               -0.02
##########                     HBond_Acceptors:                   7
##########                        HBond_Donors:                   2
##########                         Heavy_Atoms:                  29
##########                          Grid_Score:          -27.098066
##########                     Grid_vdw_energy:          -25.622889
##########                      Grid_es_energy:           -1.475177
##########           Internal_energy_repulsive:            8.924223

@<TRIPOS>MOLECULE
ZINC001191386213
 50 53 1 0 0
SMALL
USER_CHARGES


@<TRIPOS>ATOM
      1 C1         -0.5045    4.9657   54.8376 C.3     1  ZINC001191386213   -0.1700
      2 C2         -1.5434    4.6140   53.8041 C.2     1  ZINC001191386213    0.5100
      3 O3         -2.4219    5.4053   53.5338 O.2     1  ZINC001191386213   -0.5200
      4 N4         -1.4963    3.4203   53.1802 N.am    1  ZINC001191386213   -0.6800
      5 C5         -2.4610    3.0938   52.2205 C.ar    1  ZINC001191386213    0.1400
      6 C6         -2.1166    3.0515   50.8753 C.ar    1  ZINC001191386213   -0.1400
      7 C7         -3.0667    2.7289   49.9249 C.ar    1  ZINC001191386213   -0.1000
      8 C8         -4.3631    2.4474   50.3069 C.ar    1  ZINC001191386213   -0.1100
      9 C9         -4.7175    2.4878   51.6541 C.ar    1  ZINC001191386213    0.0100
     10 C10        -6.1112    2.1853   52.0664 C.2     1  ZINC001191386213    0.0700
     11 N11        -6.7987    2.8084   53.0001 N.2     1  ZINC001191386213   -0.2500
     12 N12        -7.9745    2.3049   53.1132 N.pl3   1  ZINC001191386213   -0.3800
     13 C13        -8.1290    1.2804   52.2219 C.2     1  ZINC001191386213   -0.0400
     14 C14        -9.3286    0.4482   52.0351 C.2     1  ZINC001191386213    0.6100
     15 O15        -9.2734   -0.7510   52.2305 O.2     1  ZINC001191386213   -0.5100
     16 N16       -10.4883    1.0152   51.6475 N.am    1  ZINC001191386213   -0.6200
     17 C17       -10.6947    2.4456   51.3779 C.3     1  ZINC001191386213    0.0800
     18 C18       -12.1775    2.6297   50.9914 C.3     1  ZINC001191386213   -0.1200
     19 C19       -12.8563    1.3808   51.6133 C.3     1  ZINC001191386213   -0.0600
     20 H20       -13.0700    1.5382   52.6705 H       1  ZINC001191386213    0.1000
     21 C21       -14.1097    1.0161   50.8604 C.ar    1  ZINC001191386213   -0.1100
     22 C22       -14.0490    0.7476   49.5063 C.ar    1  ZINC001191386213   -0.0900
     23 C23       -15.1989    0.4130   48.8151 C.ar    1  ZINC001191386213   -0.1300
     24 C24       -16.4102    0.3470   49.4775 C.ar    1  ZINC001191386213   -0.0900
     25 C25       -16.4734    0.6155   50.8319 C.ar    1  ZINC001191386213   -0.1500
     26 C26       -15.3218    0.9442   51.5263 C.ar    1  ZINC001191386213    0.1100
     27 F27       -15.3823    1.2070   52.8501 F       1  ZINC001191386213   -0.1400
     28 C28       -11.7583    0.3027   51.4175 C.3     1  ZINC001191386213    0.1200
     29 C29        -6.9391    1.1845   51.5260 C.2     1  ZINC001191386213   -0.1300
     30 C30        -3.7600    2.8065   52.6126 C.ar    1  ZINC001191386213   -0.1000
     31 H31        -0.7046    5.9630   55.2292 H       1  ZINC001191386213    0.1000
     32 H32        -0.5419    4.2415   55.6515 H       1  ZINC001191386213    0.0900
     33 H33         0.4844    4.9467   54.3797 H       1  ZINC001191386213    0.0900
     34 H34        -0.7936    2.7875   53.3964 H       1  ZINC001191386213    0.4100
     35 H35        -1.1038    3.2718   50.5715 H       1  ZINC001191386213    0.1300
     36 H36        -2.7943    2.6974   48.8803 H       1  ZINC001191386213    0.1300
     37 H37        -5.1030    2.1961   49.5614 H       1  ZINC001191386213    0.1300
     38 H38        -8.6521    2.6063   53.7385 H       1  ZINC001191386213    0.4400
     39 H39       -10.4696    3.0276   52.2716 H       1  ZINC001191386213    0.0700
     40 H40       -10.0549    2.7638   50.5549 H       1  ZINC001191386213    0.0800
     41 H41       -12.5790    3.5443   51.4277 H       1  ZINC001191386213    0.0900
     42 H42       -12.2959    2.6336   49.9078 H       1  ZINC001191386213    0.0900
     43 H43       -13.1032    0.7996   48.9875 H       1  ZINC001191386213    0.1300
     44 H44       -15.1505    0.2033   47.7568 H       1  ZINC001191386213    0.1300
     45 H45       -17.3078    0.0858   48.9366 H       1  ZINC001191386213    0.1300
     46 H46       -17.4201    0.5646   51.3491 H       1  ZINC001191386213    0.1400
     47 H47       -11.7965   -0.0981   50.4045 H       1  ZINC001191386213    0.0800
     48 H48       -11.8780   -0.4977   52.1477 H       1  ZINC001191386213    0.0900
     49 H49        -6.6945    0.4859   50.7395 H       1  ZINC001191386213    0.1700
     50 H50        -4.0300    2.8392   53.6578 H       1  ZINC001191386213    0.1500
@<TRIPOS>BOND
     1     1     2    1
     2     1    31    1
     3     1    32    1
     4     1    33    1
     5     2     3    2
     6     2     4   am
     7     4     5    1
     8     4    34    1
     9     5    30   ar
    10     5     6   ar
    11     6     7   ar
    12     6    35    1
    13     7     8   ar
    14     7    36    1
    15     8     9   ar
    16     8    37    1
    17     9    10    1
    18     9    30   ar
    19    10    29    1
    20    10    11    2
    21    11    12    1
    22    12    13    1
    23    12    38    1
    24    13    14    1
    25    13    29    2
    26    14    15    2
    27    14    16   am
    28    16    28    1
    29    16    17    1
    30    17    18    1
    31    17    39    1
    32    17    40    1
    33    18    19    1
    34    18    41    1
    35    18    42    1
    36    19    20    1
    37    19    21    1
    38    19    28    1
    39    21    26   ar
    40    21    22   ar
    41    22    23   ar
    42    22    43    1
    43    23    24   ar
    44    23    44    1
    45    24    25   ar
    46    24    45    1
    47    25    26   ar
    48    25    46    1
    49    26    27    1
    50    28    47    1
    51    28    48    1
    52    29    49    1
    53    30    50    1
@<TRIPOS>SUBSTRUCTURE
     1 ZINC001191386213        1 TEMP              0 ****  ****    0 ROOT


##########                                Name:    ZINC000469435497
##########                DOCK_Rotatable_Bonds:                   6
##########                         Heavy_Atoms:                  27
##########                    Molecular_Weight:             364.444
##########                DOCK_Rotatable_Bonds:                   6
##########                       Formal_Charge:           0.0300001
##########                     HBond_Acceptors:                   5
##########                        HBond_Donors:                   2
##########                         Heavy_Atoms:                  27
##########                          Grid_Score:          -27.081888
##########                     Grid_vdw_energy:          -25.606119
##########                      Grid_es_energy:           -1.475770
##########           Internal_energy_repulsive:            3.780104

@<TRIPOS>MOLECULE
ZINC000469435497
 51 54 1 0 0
SMALL
USER_CHARGES


@<TRIPOS>ATOM
      1 C1        -14.1330    1.4157   51.6793 C.3     1  ZINC000469435497   -0.1600
      2 C2        -13.0794    1.3322   50.5730 C.3     1  ZINC000469435497    0.1000
      3 C3        -13.7364    1.4185   49.1940 C.3     1  ZINC000469435497   -0.1400
      4 C4        -12.0134    2.4397   50.7469 C.3     1  ZINC000469435497   -0.1000
      5 C5        -10.9498    1.7266   51.5593 C.ar    1  ZINC000469435497   -0.1500
      6 C6         -9.8761    2.1916   52.2846 C.ar    1  ZINC000469435497   -0.0700
      7 C7         -9.0502    1.2954   52.9523 C.ar    1  ZINC000469435497    0.1100
      8 N8         -7.9561    1.7626   53.6924 N.am    1  ZINC000469435497   -0.6600
      9 C9         -8.0466    1.8721   55.0327 C.2     1  ZINC000469435497    0.5100
     10 O10        -9.0752    1.5663   55.5980 O.2     1  ZINC000469435497   -0.5200
     11 C11        -6.8698    2.3745   55.8288 C.3     1  ZINC000469435497    0.1000
     12 N12        -5.6938    2.4620   54.9598 N.am    1  ZINC000469435497   -0.7200
     13 C13        -4.7541    3.4002   55.1900 C.2     1  ZINC000469435497    0.5700
     14 O14        -4.8831    4.1748   56.1179 O.2     1  ZINC000469435497   -0.5300
     15 C15        -3.5662    3.4873   54.3140 C.ar    1  ZINC000469435497   -0.1400
     16 C16        -2.3705    4.0146   54.8035 C.ar    1  ZINC000469435497   -0.0800
     17 C17        -1.2681    4.0920   53.9795 C.ar    1  ZINC000469435497   -0.1100
     18 C18        -1.3400    3.6493   52.6678 C.ar    1  ZINC000469435497   -0.0700
     19 C19        -0.2837    3.6296   51.5831 C.3     1  ZINC000469435497   -0.0900
     20 C20        -0.8130    2.6426   50.5213 C.3     1  ZINC000469435497   -0.1200
     21 C21        -2.3403    2.7187   50.7296 C.3     1  ZINC000469435497   -0.0800
     22 C22        -2.5232    3.1254   52.1764 C.ar    1  ZINC000469435497   -0.1100
     23 C23        -3.6328    3.0377   52.9953 C.ar    1  ZINC000469435497   -0.0400
     24 C24        -9.3157   -0.0654   52.8820 C.ar    1  ZINC000469435497   -0.1000
     25 C25       -10.3900   -0.5275   52.1511 C.ar    1  ZINC000469435497   -0.1200
     26 C26       -11.2189    0.3661   51.4776 C.ar    1  ZINC000469435497    0.1000
     27 O27       -12.3076    0.1254   50.6949 O.3     1  ZINC000469435497   -0.3000
     28 H28       -13.6419    1.3839   52.6520 H       1  ZINC000469435497    0.0600
     29 H29       -14.6879    2.3489   51.5829 H       1  ZINC000469435497    0.0800
     30 H30       -14.8198    0.5738   51.5913 H       1  ZINC000469435497    0.0700
     31 H31       -14.2579    2.3710   49.0990 H       1  ZINC000469435497    0.0800
     32 H32       -12.9710    1.3447   48.4216 H       1  ZINC000469435497    0.0700
     33 H33       -14.4486    0.6014   49.0791 H       1  ZINC000469435497    0.0700
     34 H34       -11.6191    2.7559   49.7811 H       1  ZINC000469435497    0.0900
     35 H35       -12.4198    3.2886   51.2969 H       1  ZINC000469435497    0.0900
     36 H36        -9.6756    3.2516   52.3342 H       1  ZINC000469435497    0.1400
     37 H37        -7.1335    2.0070   53.2403 H       1  ZINC000469435497    0.4200
     38 H38        -7.0984    3.3613   56.2314 H       1  ZINC000469435497    0.1100
     39 H39        -6.6654    1.6860   56.6488 H       1  ZINC000469435497    0.1100
     40 H40        -5.5914    1.8446   54.2186 H       1  ZINC000469435497    0.4100
     41 H41        -2.3090    4.3612   55.8245 H       1  ZINC000469435497    0.1300
     42 H42        -0.3427    4.5004   54.3581 H       1  ZINC000469435497    0.1300
     43 H43        -0.1668    4.6234   51.1508 H       1  ZINC000469435497    0.0900
     44 H44         0.6660    3.2777   51.9864 H       1  ZINC000469435497    0.0800
     45 H45        -0.5420    2.9710   49.5179 H       1  ZINC000469435497    0.0800
     46 H46        -0.4457    1.6343   50.7125 H       1  ZINC000469435497    0.0700
     47 H47        -2.7753    3.4680   50.0682 H       1  ZINC000469435497    0.0800
     48 H48        -2.7954    1.7447   50.5501 H       1  ZINC000469435497    0.0800
     49 H49        -4.5540    2.6235   52.6128 H       1  ZINC000469435497    0.1400
     50 H50        -8.6780   -0.7652   53.4017 H       1  ZINC000469435497    0.1400
     51 H51       -10.5897   -1.5877   52.1010 H       1  ZINC000469435497    0.1300
@<TRIPOS>BOND
     1     1     2    1
     2     1    28    1
     3     1    29    1
     4     1    30    1
     5     2    27    1
     6     2     3    1
     7     2     4    1
     8     3    31    1
     9     3    32    1
    10     3    33    1
    11     4     5    1
    12     4    34    1
    13     4    35    1
    14     5    26   ar
    15     5     6   ar
    16     6     7   ar
    17     6    36    1
    18     7     8    1
    19     7    24   ar
    20     8     9   am
    21     8    37    1
    22     9    10    2
    23     9    11    1
    24    11    12    1
    25    11    38    1
    26    11    39    1
    27    12    13   am
    28    12    40    1
    29    13    14    2
    30    13    15    1
    31    15    23   ar
    32    15    16   ar
    33    16    17   ar
    34    16    41    1
    35    17    18   ar
    36    17    42    1
    37    18    22   ar
    38    18    19    1
    39    19    20    1
    40    19    43    1
    41    19    44    1
    42    20    21    1
    43    20    45    1
    44    20    46    1
    45    21    22    1
    46    21    47    1
    47    21    48    1
    48    22    23   ar
    49    23    49    1
    50    24    25   ar
    51    24    50    1
    52    25    26   ar
    53    25    51    1
    54    26    27    1
@<TRIPOS>SUBSTRUCTURE
     1 ZINC000469435497        1 TEMP              0 ****  ****    0 ROOT


##########                                Name:    ZINC000481838178
##########                DOCK_Rotatable_Bonds:                   6
##########                         Heavy_Atoms:                  29
##########                    Molecular_Weight:             408.524
##########                DOCK_Rotatable_Bonds:                   6
##########                       Formal_Charge:         -0.00999962
##########                     HBond_Acceptors:                   7
##########                        HBond_Donors:                   0
##########                         Heavy_Atoms:                  29
##########                          Grid_Score:          -27.078045
##########                     Grid_vdw_energy:          -28.556408
##########                      Grid_es_energy:            1.478363
##########           Internal_energy_repulsive:           10.033862

@<TRIPOS>MOLECULE
ZINC000481838178
 53 57 1 0 0
SMALL
USER_CHARGES


@<TRIPOS>ATOM
      1 O1         -5.8510    0.8340   51.2418 O.2     1  ZINC000481838178   -0.5200
      2 C2         -6.6296    1.7363   51.4667 C.2     1  ZINC000481838178    0.5500
      3 C3         -6.1827    3.1689   51.3294 C.3     1  ZINC000481838178   -0.1500
      4 S4         -4.8551    3.5029   52.5135 S.3     1  ZINC000481838178    0.1000
      5 C5         -3.4557    3.0707   51.5341 C.2     1  ZINC000481838178    0.1600
      6 N6         -3.4795    2.5370   50.3336 N.2     1  ZINC000481838178   -0.2800
      7 N7         -2.2820    2.3500   49.9070 N.2     1  ZINC000481838178   -0.2500
      8 C8         -1.4145    2.7533   50.8098 C.2     1  ZINC000481838178    0.2700
      9 C9          0.0512    2.7067   50.6974 C.2     1  ZINC000481838178    0.0300
     10 C10         0.7581    2.1500   49.6736 C.2     1  ZINC000481838178   -0.1300
     11 C11         2.1213    2.3312   49.9769 C.2     1  ZINC000481838178   -0.2100
     12 C12         2.1814    2.9816   51.1560 C.2     1  ZINC000481838178   -0.0100
     13 O13         0.9296    3.2121   51.5858 O.3     1  ZINC000481838178   -0.1700
     14 N14        -2.1409    3.2339   51.8798 N.pl3   1  ZINC000481838178   -0.4100
     15 C15        -1.6383    3.7686   53.0739 C.ar    1  ZINC000481838178    0.1000
     16 C16        -0.8887    4.9370   53.0516 C.ar    1  ZINC000481838178   -0.0800
     17 C17        -0.3946    5.4615   54.2300 C.ar    1  ZINC000481838178   -0.1100
     18 C18        -0.6460    4.8242   55.4311 C.ar    1  ZINC000481838178   -0.1000
     19 C19        -1.3924    3.6603   55.4565 C.ar    1  ZINC000481838178   -0.1100
     20 C20        -1.8939    3.1341   54.2821 C.ar    1  ZINC000481838178   -0.0900
     21 N21        -7.8962    1.4578   51.8340 N.am    1  ZINC000481838178   -0.6200
     22 C22        -8.4724    0.0985   52.0148 C.3     1  ZINC000481838178    0.1000
     23 C23        -9.6165    0.3337   53.0081 C.3     1  ZINC000481838178   -0.1100
     24 H24        -9.2324    0.4954   54.0154 H       1  ZINC000481838178    0.0900
     25 C25       -10.7256   -0.7013   53.0108 C.3     1  ZINC000481838178   -0.1100
     26 C26       -11.8057   -0.2037   53.9857 C.3     1  ZINC000481838178   -0.1200
     27 C27       -12.3277    1.1744   53.5921 C.3     1  ZINC000481838178   -0.1200
     28 C28       -11.1836    2.1912   53.4400 C.3     1  ZINC000481838178   -0.1000
     29 C29       -10.2156    1.6449   52.4162 C.3     1  ZINC000481838178   -0.1100
     30 H30       -10.7437    1.4098   51.4921 H       1  ZINC000481838178    0.0900
     31 C31        -8.9539    2.4548   52.1336 C.3     1  ZINC000481838178    0.1200
     32 H32        -5.8178    3.3403   50.3166 H       1  ZINC000481838178    0.1300
     33 H33        -7.0237    3.8328   51.5298 H       1  ZINC000481838178    0.1300
     34 H34         0.3514    1.6636   48.7993 H       1  ZINC000481838178    0.1600
     35 H35         2.9602    2.0096   49.3779 H       1  ZINC000481838178    0.1600
     36 H36         3.0863    3.2733   51.6683 H       1  ZINC000481838178    0.2100
     37 H37        -0.6917    5.4350   52.1138 H       1  ZINC000481838178    0.1300
     38 H38         0.1888    6.3702   54.2132 H       1  ZINC000481838178    0.1400
     39 H39        -0.2585    5.2360   56.3512 H       1  ZINC000481838178    0.1300
     40 H40        -1.5867    3.1645   56.3962 H       1  ZINC000481838178    0.1400
     41 H41        -2.4767    2.2251   54.3026 H       1  ZINC000481838178    0.1300
     42 H42        -8.8561   -0.2858   51.0697 H       1  ZINC000481838178    0.0800
     43 H43        -7.7311   -0.5810   52.4354 H       1  ZINC000481838178    0.0800
     44 H44       -11.1452   -0.7989   52.0095 H       1  ZINC000481838178    0.0700
     45 H45       -10.3361   -1.6624   53.3467 H       1  ZINC000481838178    0.0700
     46 H46       -12.6352   -0.9109   53.9886 H       1  ZINC000481838178    0.0600
     47 H47       -11.3821   -0.1505   54.9887 H       1  ZINC000481838178    0.0600
     48 H48       -12.8618    1.0954   52.6452 H       1  ZINC000481838178    0.0600
     49 H49       -13.0169    1.5264   54.3597 H       1  ZINC000481838178    0.0700
     50 H50       -11.5800    3.1488   53.1025 H       1  ZINC000481838178    0.0700
     51 H51       -10.6685    2.3161   54.3925 H       1  ZINC000481838178    0.0700
     52 H52        -8.6877    3.0531   53.0048 H       1  ZINC000481838178    0.0700
     53 H53        -9.1057    3.0978   51.2666 H       1  ZINC000481838178    0.0700
@<TRIPOS>BOND
     1     1     2    2
     2     2     3    1
     3     2    21   am
     4     3     4    1
     5     3    32    1
     6     3    33    1
     7     4     5    1
     8     5    14    1
     9     5     6    2
    10     6     7    1
    11     7     8    2
    12     8     9    1
    13     8    14    1
    14     9    13    1
    15     9    10    2
    16    10    11    1
    17    10    34    1
    18    11    12    2
    19    11    35    1
    20    12    13    1
    21    12    36    1
    22    14    15    1
    23    15    20   ar
    24    15    16   ar
    25    16    17   ar
    26    16    37    1
    27    17    18   ar
    28    17    38    1
    29    18    19   ar
    30    18    39    1
    31    19    20   ar
    32    19    40    1
    33    20    41    1
    34    21    31    1
    35    21    22    1
    36    22    23    1
    37    22    42    1
    38    22    43    1
    39    23    24    1
    40    23    29    1
    41    23    25    1
    42    25    26    1
    43    25    44    1
    44    25    45    1
    45    26    27    1
    46    26    46    1
    47    26    47    1
    48    27    28    1
    49    27    48    1
    50    27    49    1
    51    28    29    1
    52    28    50    1
    53    28    51    1
    54    29    30    1
    55    29    31    1
    56    31    52    1
    57    31    53    1
@<TRIPOS>SUBSTRUCTURE
     1 ZINC000481838178        1 TEMP              0 ****  ****    0 ROOT


##########                                Name:    ZINC000564088286
##########                DOCK_Rotatable_Bonds:                   6
##########                         Heavy_Atoms:                  25
##########                    Molecular_Weight:             398.934
##########                DOCK_Rotatable_Bonds:                   6
##########                       Formal_Charge:               -0.05
##########                     HBond_Acceptors:                   8
##########                        HBond_Donors:                   1
##########                         Heavy_Atoms:                  25
##########                          Grid_Score:          -27.059664
##########                     Grid_vdw_energy:          -27.133207
##########                      Grid_es_energy:            0.073544
##########           Internal_energy_repulsive:           11.734809

@<TRIPOS>MOLECULE
ZINC000564088286
 44 46 1 0 0
SMALL
USER_CHARGES


@<TRIPOS>ATOM
      1 C1        -17.3062   -0.9656   54.5607 C.3     1  ZINC000564088286   -0.1600
      2 C2        -16.9852   -2.0650   55.5753 C.3     1  ZINC000564088286    0.1100
      3 N3        -16.3153   -3.1764   54.8954 N.am    1  ZINC000564088286   -1.1200
      4 S4        -15.2248   -4.1133   55.7174 S.o2    1  ZINC000564088286    2.7000
      5 O5        -15.8895   -4.5693   56.8876 O.2     1  ZINC000564088286   -0.9600
      6 O6        -14.6472   -4.9901   54.7600 O.2     1  ZINC000564088286   -0.9600
      7 C7        -13.9304   -3.0498   56.2630 C.ar    1  ZINC000564088286   -0.6800
      8 C8        -14.0783   -2.3232   57.4298 C.ar    1  ZINC000564088286   -0.0200
      9 C9        -13.0627   -1.4888   57.8579 C.ar    1  ZINC000564088286   -0.1300
     10 C10       -11.8989   -1.3813   57.1195 C.ar    1  ZINC000564088286   -0.0100
     11 C11       -10.7921   -0.4713   57.5860 C.3     1  ZINC000564088286   -0.1100
     12 C12       -10.1258   -1.0709   58.7974 C.2     1  ZINC000564088286    0.5200
     13 O13       -10.4086   -2.1962   59.1503 O.2     1  ZINC000564088286   -0.5200
     14 N14        -9.2156   -0.3567   59.4886 N.am    1  ZINC000564088286   -0.6200
     15 C15        -8.8579    1.0094   59.0779 C.3     1  ZINC000564088286    0.1200
     16 C16        -9.3012    1.9810   60.1760 C.3     1  ZINC000564088286   -0.0700
     17 C17        -8.8911    1.4256   61.5234 C.2     1  ZINC000564088286   -0.1600
     18 C18        -8.5643    0.1422   61.7643 C.2     1  ZINC000564088286   -0.1200
     19 C19        -8.2330   -0.1137   63.0917 C.2     1  ZINC000564088286   -0.1100
     20 C20        -8.2813    0.9349   63.9090 C.2     1  ZINC000564088286   -0.1500
     21 Cl21       -7.9159    0.8993   65.6057 Cl      1  ZINC000564088286   -0.0100
     22 S22        -8.7712    2.3616   63.0079 S.3     1  ZINC000564088286    0.1600
     23 C23        -8.5586   -0.9203   60.6765 C.3     1  ZINC000564088286    0.1700
     24 C24       -11.7506   -2.1089   55.9536 C.ar    1  ZINC000564088286   -0.1300
     25 C25       -12.7645   -2.9462   55.5275 C.ar    1  ZINC000564088286   -0.0200
     26 H26       -16.3817   -0.6093   54.1064 H       1  ZINC000564088286    0.0600
     27 H27       -17.9609   -1.3656   53.7866 H       1  ZINC000564088286    0.0600
     28 H28       -17.8047   -0.1387   55.0665 H       1  ZINC000564088286    0.0700
     29 H29       -16.3305   -1.6650   56.3495 H       1  ZINC000564088286    0.0800
     30 H30       -17.9098   -2.4213   56.0297 H       1  ZINC000564088286    0.0700
     31 H31       -16.5104   -3.3635   53.9639 H       1  ZINC000564088286    0.4200
     32 H32       -14.9874   -2.4072   58.0066 H       1  ZINC000564088286    0.1400
     33 H33       -13.1786   -0.9207   58.7690 H       1  ZINC000564088286    0.1300
     34 H34       -10.0582   -0.3535   56.7887 H       1  ZINC000564088286    0.1100
     35 H35       -11.2072    0.5028   57.8445 H       1  ZINC000564088286    0.1100
     36 H36        -7.7789    1.0797   58.9407 H       1  ZINC000564088286    0.0800
     37 H37        -9.3649    1.2556   58.1448 H       1  ZINC000564088286    0.1100
     38 H38        -8.8247    2.9490   60.0204 H       1  ZINC000564088286    0.0900
     39 H39       -10.3845    2.0975   60.1442 H       1  ZINC000564088286    0.0900
     40 H40        -7.9551   -1.0990   63.4358 H       1  ZINC000564088286    0.1500
     41 H41        -9.1015   -1.8015   61.0183 H       1  ZINC000564088286    0.1000
     42 H42        -7.5319   -1.1909   60.4300 H       1  ZINC000564088286    0.0900
     43 H43       -10.8412   -2.0251   55.3770 H       1  ZINC000564088286    0.1300
     44 H44       -12.6486   -3.5146   54.6166 H       1  ZINC000564088286    0.1400
@<TRIPOS>BOND
     1     1     2    1
     2     1    26    1
     3     1    27    1
     4     1    28    1
     5     2     3    1
     6     2    29    1
     7     2    30    1
     8     3     4   am
     9     3    31    1
    10     4     5    2
    11     4     6    2
    12     4     7    1
    13     7    25   ar
    14     7     8   ar
    15     8     9   ar
    16     8    32    1
    17     9    10   ar
    18     9    33    1
    19    10    11    1
    20    10    24   ar
    21    11    12    1
    22    11    34    1
    23    11    35    1
    24    12    13    2
    25    12    14   am
    26    14    23    1
    27    14    15    1
    28    15    16    1
    29    15    36    1
    30    15    37    1
    31    16    17    1
    32    16    38    1
    33    16    39    1
    34    17    22    1
    35    17    18    2
    36    18    19    1
    37    18    23    1
    38    19    20    2
    39    19    40    1
    40    20    21    1
    41    20    22    1
    42    23    41    1
    43    23    42    1
    44    24    25   ar
    45    24    43    1
    46    25    44    1
@<TRIPOS>SUBSTRUCTURE
     1 ZINC000564088286        1 TEMP              0 ****  ****    0 ROOT


##########                                Name:    ZINC000446721380
##########                DOCK_Rotatable_Bonds:                   8
##########                         Heavy_Atoms:                  26
##########                    Molecular_Weight:             419.318
##########                DOCK_Rotatable_Bonds:                   8
##########                       Formal_Charge:           0.0199992
##########                     HBond_Acceptors:                   5
##########                        HBond_Donors:                   2
##########                         Heavy_Atoms:                  26
##########                          Grid_Score:          -27.050489
##########                     Grid_vdw_energy:          -28.043585
##########                      Grid_es_energy:            0.993095
##########           Internal_energy_repulsive:            7.686731

@<TRIPOS>MOLECULE
ZINC000446721380
 49 51 1 0 0
SMALL
USER_CHARGES


@<TRIPOS>ATOM
      1 C1         -2.8312    3.0654   51.4572 C.3     1  ZINC000446721380   -0.1200
      2 C2         -3.5799    3.1289   52.7636 C.ar    1  ZINC000446721380   -0.0300
      3 C3         -4.9488    2.9371   52.7852 C.ar    1  ZINC000446721380   -0.1600
      4 C4         -5.6387    2.9947   53.9822 C.ar    1  ZINC000446721380   -0.0500
      5 C5         -4.9612    3.2442   55.1598 C.ar    1  ZINC000446721380   -0.1500
      6 C6         -5.7136    3.3064   56.4641 C.3     1  ZINC000446721380    0.1900
      7 N7         -6.5959    2.1424   56.5748 N.am    1  ZINC000446721380   -0.7300
      8 C8         -7.6895    2.1980   57.3607 C.2     1  ZINC000446721380    0.7100
      9 O9         -7.9445    3.2149   57.9765 O.2     1  ZINC000446721380   -0.5700
     10 N10        -8.5004    1.1265   57.4638 N.am    1  ZINC000446721380   -0.6900
     11 C11        -9.6363    1.1843   58.2800 C.ar    1  ZINC000446721380    0.2000
     12 C12       -10.7208    1.9669   57.9083 C.ar    1  ZINC000446721380   -0.1200
     13 C13       -11.8406    2.0215   58.7158 C.ar    1  ZINC000446721380   -0.0800
     14 C14       -11.8822    1.2979   59.8930 C.ar    1  ZINC000446721380   -0.1300
     15 C15       -10.8034    0.5173   60.2670 C.ar    1  ZINC000446721380   -0.0700
     16 C16        -9.6828    0.4538   59.4613 C.ar    1  ZINC000446721380   -0.1300
     17 Br17       -8.2084   -0.6141   59.9727 Br      1  ZINC000446721380   -0.0500
     18 C18        -3.5872    3.4371   55.1408 C.ar    1  ZINC000446721380    0.1500
     19 O19        -2.9183    3.6823   56.2981 O.3     1  ZINC000446721380   -0.3100
     20 C20        -2.2008    2.5903   56.8766 C.3     1  ZINC000446721380    0.0700
     21 C21        -0.8318    3.0767   57.3565 C.3     1  ZINC000446721380   -0.1200
     22 H22        -0.8263    4.1624   57.4536 H       1  ZINC000446721380    0.1000
     23 C23         0.2794    2.6140   56.3830 C.3     1  ZINC000446721380   -0.1500
     24 C24         1.4163    2.2105   57.3563 C.3     1  ZINC000446721380    0.0500
     25 O25         0.7128    1.6145   58.4673 O.3     1  ZINC000446721380   -0.3800
     26 C26        -0.4635    2.4134   58.6978 C.3     1  ZINC000446721380    0.0500
     27 C27        -2.8968    3.3732   53.9395 C.ar    1  ZINC000446721380   -0.2100
     28 H28        -2.5114    2.0401   51.2712 H       1  ZINC000446721380    0.0800
     29 H29        -3.4833    3.3951   50.6484 H       1  ZINC000446721380    0.0700
     30 H30        -1.9574    3.7152   51.5073 H       1  ZINC000446721380    0.0700
     31 H31        -5.4804    2.7422   51.8654 H       1  ZINC000446721380    0.1300
     32 H32        -6.7081    2.8449   53.9964 H       1  ZINC000446721380    0.1300
     33 H33        -5.0051    3.3055   57.2925 H       1  ZINC000446721380    0.0800
     34 H34        -6.3094    4.2185   56.4966 H       1  ZINC000446721380    0.0800
     35 H35        -6.3933    1.3315   56.0825 H       1  ZINC000446721380    0.4000
     36 H36        -8.2971    0.3152   56.9724 H       1  ZINC000446721380    0.4100
     37 H37       -10.6892    2.5328   56.9891 H       1  ZINC000446721380    0.1500
     38 H38       -12.6844    2.6307   58.4271 H       1  ZINC000446721380    0.1300
     39 H39       -12.7587    1.3425   60.5223 H       1  ZINC000446721380    0.1300
     40 H40       -10.8387   -0.0462   61.1876 H       1  ZINC000446721380    0.1400
     41 H41        -2.7625    2.1939   57.7225 H       1  ZINC000446721380    0.0700
     42 H42        -2.0670    1.8073   56.1302 H       1  ZINC000446721380    0.0700
     43 H43        -0.0507    1.7581   55.7943 H       1  ZINC000446721380    0.0800
     44 H44         0.5943    3.4320   55.7350 H       1  ZINC000446721380    0.0900
     45 H45         2.0817    1.4844   56.8893 H       1  ZINC000446721380    0.1000
     46 H46         1.9731    3.0893   57.6815 H       1  ZINC000446721380    0.0600
     47 H47        -0.2522    3.1768   59.4465 H       1  ZINC000446721380    0.0600
     48 H48        -1.2829    1.7782   59.0343 H       1  ZINC000446721380    0.0900
     49 H49        -1.8274    3.5230   53.9221 H       1  ZINC000446721380    0.1300
@<TRIPOS>BOND
     1     1     2    1
     2     1    28    1
     3     1    29    1
     4     1    30    1
     5     2    27   ar
     6     2     3   ar
     7     3     4   ar
     8     3    31    1
     9     4     5   ar
    10     4    32    1
    11     5     6    1
    12     5    18   ar
    13     6     7    1
    14     6    33    1
    15     6    34    1
    16     7     8   am
    17     7    35    1
    18     8     9    2
    19     8    10   am
    20    10    11    1
    21    10    36    1
    22    11    16   ar
    23    11    12   ar
    24    12    13   ar
    25    12    37    1
    26    13    14   ar
    27    13    38    1
    28    14    15   ar
    29    14    39    1
    30    15    16   ar
    31    15    40    1
    32    16    17    1
    33    18    19    1
    34    18    27   ar
    35    19    20    1
    36    20    21    1
    37    20    41    1
    38    20    42    1
    39    21    22    1
    40    21    26    1
    41    21    23    1
    42    23    24    1
    43    23    43    1
    44    23    44    1
    45    24    25    1
    46    24    45    1
    47    24    46    1
    48    25    26    1
    49    26    47    1
    50    26    48    1
    51    27    49    1
@<TRIPOS>SUBSTRUCTURE
     1 ZINC000446721380        1 TEMP              0 ****  ****    0 ROOT


##########                                Name:    ZINC001077846158
##########                DOCK_Rotatable_Bonds:                   7
##########                         Heavy_Atoms:                  24
##########                    Molecular_Weight:             350.442
##########                DOCK_Rotatable_Bonds:                   7
##########                       Formal_Charge:          -0.0600002
##########                     HBond_Acceptors:                   8
##########                        HBond_Donors:                   2
##########                         Heavy_Atoms:                  24
##########                          Grid_Score:          -27.029718
##########                     Grid_vdw_energy:          -25.716522
##########                      Grid_es_energy:           -1.313196
##########           Internal_energy_repulsive:            5.124163

@<TRIPOS>MOLECULE
ZINC001077846158
 46 48 1 0 0
SMALL
USER_CHARGES


@<TRIPOS>ATOM
      1 C1         -7.4896    5.2099   57.7052 C.3     1  ZINC001077846158   -0.0700
      2 C2         -7.3981    3.9094   56.9491 C.2     1  ZINC001077846158    0.0100
      3 C3         -8.0643    2.7783   57.2340 C.2     1  ZINC001077846158   -0.0500
      4 C4         -9.0393    2.5742   58.3648 C.3     1  ZINC001077846158    0.1300
      5 N5         -9.3971    1.1521   58.4521 N.3     1  ZINC001077846158   -0.5100
      6 C6         -8.4517    0.4184   59.3320 C.3     1  ZINC001077846158    0.0000
      7 C7         -9.2455   -0.8536   59.7227 C.3     1  ZINC001077846158    0.1000
      8 H8         -9.1933   -1.5996   58.9298 H       1  ZINC001077846158    0.0800
      9 O9         -8.7620   -1.3928   60.9545 O.3     1  ZINC001077846158   -0.5600
     10 C10       -10.6894   -0.3246   59.8820 C.3     1  ZINC001077846158    0.1400
     11 H11       -10.9035   -0.1189   60.9307 H       1  ZINC001077846158    0.1100
     12 N12       -11.6483   -1.2956   59.3490 N.am    1  ZINC001077846158   -0.7000
     13 C13       -12.9053   -1.3367   59.8335 C.2     1  ZINC001077846158    0.6000
     14 O14       -13.2433   -0.5686   60.7139 O.2     1  ZINC001077846158   -0.5300
     15 C15       -13.8698   -2.3115   59.2966 C.2     1  ZINC001077846158    0.0100
     16 C16       -14.7879   -2.9420   60.0630 C.2     1  ZINC001077846158   -0.2300
     17 S17       -15.7113   -3.9850   59.0722 S.3     1  ZINC001077846158    0.2300
     18 C18       -14.8190   -3.5194   57.6926 C.2     1  ZINC001077846158    0.0300
     19 C19       -15.0530   -4.0475   56.3006 C.3     1  ZINC001077846158   -0.0200
     20 C20       -15.3768   -5.5412   56.3696 C.3     1  ZINC001077846158   -0.1500
     21 C21       -16.2255   -3.3002   55.6621 C.3     1  ZINC001077846158   -0.1500
     22 N22       -13.9229   -2.6511   58.0059 N.2     1  ZINC001077846158   -0.4500
     23 C23       -10.7332    0.9782   59.0621 C.3     1  ZINC001077846158    0.0300
     24 O24        -7.6971    1.8606   56.3182 O.3     1  ZINC001077846158   -0.2100
     25 C25        -6.8167    2.4389   55.4904 C.2     1  ZINC001077846158    0.1800
     26 N26        -6.6391    3.6739   55.8643 N.2     1  ZINC001077846158   -0.4900
     27 H27        -8.2856    5.8216   57.2808 H       1  ZINC001077846158    0.0800
     28 H28        -7.7076    5.0061   58.7536 H       1  ZINC001077846158    0.0700
     29 H29        -6.5417    5.7425   57.6281 H       1  ZINC001077846158    0.0700
     30 H30        -8.5810    2.8917   59.3014 H       1  ZINC001077846158    0.0600
     31 H31        -9.9372    3.1642   58.1813 H       1  ZINC001077846158    0.1100
     32 H32        -7.5454    0.1541   58.7872 H       1  ZINC001077846158    0.0900
     33 H33        -8.2119    1.0090   60.2161 H       1  ZINC001077846158    0.0600
     34 H34        -7.9663   -1.9344   60.8613 H       1  ZINC001077846158    0.3900
     35 H35       -11.3785   -1.9089   58.6477 H       1  ZINC001077846158    0.4100
     36 H36       -14.9168   -2.8086   61.1270 H       1  ZINC001077846158    0.1900
     37 H37       -14.1560   -3.8976   55.6996 H       1  ZINC001077846158    0.1000
     38 H38       -14.5415   -6.0735   56.8244 H       1  ZINC001077846158    0.0600
     39 H39       -16.2738   -5.6912   56.9706 H       1  ZINC001077846158    0.0600
     40 H40       -15.5461   -5.9231   55.3627 H       1  ZINC001077846158    0.0700
     41 H41       -15.9948   -2.2362   55.6130 H       1  ZINC001077846158    0.0600
     42 H42       -16.3948   -3.6822   54.6553 H       1  ZINC001077846158    0.0700
     43 H43       -17.1224   -3.4502   56.2631 H       1  ZINC001077846158    0.0600
     44 H44       -10.9554    1.8213   59.7161 H       1  ZINC001077846158    0.0600
     45 H45       -11.4903    0.9006   58.2817 H       1  ZINC001077846158    0.0900
     46 H46        -6.3366    1.9612   54.6492 H       1  ZINC001077846158    0.2500
@<TRIPOS>BOND
     1     1     2    1
     2     1    27    1
     3     1    28    1
     4     1    29    1
     5     2    26    1
     6     2     3    2
     7     3     4    1
     8     3    24    1
     9     4     5    1
    10     4    30    1
    11     4    31    1
    12     5    23    1
    13     5     6    1
    14     6     7    1
    15     6    32    1
    16     6    33    1
    17     7     8    1
    18     7     9    1
    19     7    10    1
    20     9    34    1
    21    10    11    1
    22    10    12    1
    23    10    23    1
    24    12    13   am
    25    12    35    1
    26    13    14    2
    27    13    15    1
    28    15    22    1
    29    15    16    2
    30    16    17    1
    31    16    36    1
    32    17    18    1
    33    18    19    1
    34    18    22    2
    35    19    20    1
    36    19    21    1
    37    19    37    1
    38    20    38    1
    39    20    39    1
    40    20    40    1
    41    21    41    1
    42    21    42    1
    43    21    43    1
    44    23    44    1
    45    23    45    1
    46    24    25    1
    47    25    26    2
    48    25    46    1
@<TRIPOS>SUBSTRUCTURE
     1 ZINC001077846158        1 TEMP              0 ****  ****    0 ROOT


##########                                Name:    ZINC000441887161
##########                DOCK_Rotatable_Bonds:                   6
##########                         Heavy_Atoms:                  27
##########                    Molecular_Weight:             383.514
##########                DOCK_Rotatable_Bonds:                   6
##########                       Formal_Charge:          -0.0300002
##########                     HBond_Acceptors:                   6
##########                        HBond_Donors:                   1
##########                         Heavy_Atoms:                  27
##########                          Grid_Score:          -27.023512
##########                     Grid_vdw_energy:          -26.156721
##########                      Grid_es_energy:           -0.866791
##########           Internal_energy_repulsive:           15.979577

@<TRIPOS>MOLECULE
ZINC000441887161
 52 54 1 0 0
SMALL
USER_CHARGES


@<TRIPOS>ATOM
      1 C1         -9.1034    0.4002   64.3232 C.3     1  ZINC000441887161   -0.1200
      2 C2         -9.5551    0.1688   62.9042 C.ar    1  ZINC000441887161   -0.0700
      3 C3        -10.8638    0.4295   62.5444 C.ar    1  ZINC000441887161   -0.1200
      4 C4        -11.2782    0.2173   61.2426 C.ar    1  ZINC000441887161   -0.0900
      5 C5        -10.3837   -0.2551   60.3009 C.ar    1  ZINC000441887161   -0.1100
      6 C6        -10.8354   -0.4869   58.8820 C.3     1  ZINC000441887161    0.1900
      7 H7         -9.9979   -0.3262   58.2031 H       1  ZINC000441887161    0.1000
      8 C8        -11.3418   -1.9233   58.7363 C.3     1  ZINC000441887161    0.1000
      9 N9        -12.5509   -2.0993   59.5446 N.pl3   1  ZINC000441887161   -0.4600
     10 C10       -12.6223   -2.6747   60.7846 C.2     1  ZINC000441887161   -0.0500
     11 C11       -13.9147   -2.6306   61.1608 C.2     1  ZINC000441887161   -0.0200
     12 N12       -14.6132   -2.0443   60.1773 N.2     1  ZINC000441887161   -0.4900
     13 C13       -13.8022   -1.7188   59.2081 C.2     1  ZINC000441887161    0.1800
     14 N14       -11.9155    0.4473   58.5547 N.am    1  ZINC000441887161   -1.1100
     15 S15       -11.5962    1.7991   57.6530 S.o2    1  ZINC000441887161    2.6900
     16 O16       -12.8518    2.4068   57.3826 O.2     1  ZINC000441887161   -0.9600
     17 O17       -10.5303    2.4746   58.3064 O.2     1  ZINC000441887161   -0.9500
     18 C18       -10.9629    1.2537   56.1018 C.ar    1  ZINC000441887161   -0.6800
     19 C19       -11.7710    0.5384   55.2384 C.ar    1  ZINC000441887161   -0.0300
     20 C20       -11.2741    0.1104   54.0213 C.ar    1  ZINC000441887161   -0.1300
     21 C21        -9.9694    0.3984   53.6677 C.ar    1  ZINC000441887161   -0.0200
     22 C22        -9.4276   -0.0685   52.3413 C.3     1  ZINC000441887161   -0.1300
     23 C23        -9.1614    1.1151   54.5309 C.ar    1  ZINC000441887161   -0.1000
     24 C24        -7.7389    1.4295   54.1452 C.3     1  ZINC000441887161   -0.1200
     25 C25        -9.6593    1.5462   55.7459 C.ar    1  ZINC000441887161   -0.0100
     26 C26        -9.0741   -0.5146   60.6605 C.ar    1  ZINC000441887161   -0.0700
     27 C27        -8.0986   -1.0292   59.6336 C.3     1  ZINC000441887161   -0.1300
     28 C28        -8.6589   -0.2988   61.9610 C.ar    1  ZINC000441887161   -0.1200
     29 H29        -8.7408    1.4229   64.4270 H       1  ZINC000441887161    0.0700
     30 H30        -9.9414    0.2412   65.0017 H       1  ZINC000441887161    0.0700
     31 H31        -8.3011   -0.2962   64.5672 H       1  ZINC000441887161    0.0700
     32 H32       -11.5629    0.7987   63.2803 H       1  ZINC000441887161    0.1200
     33 H33       -12.3012    0.4203   60.9617 H       1  ZINC000441887161    0.1200
     34 H34       -11.5722   -2.1229   57.6898 H       1  ZINC000441887161    0.1100
     35 H35       -10.5726   -2.6161   59.0776 H       1  ZINC000441887161    0.1000
     36 H36       -11.8003   -3.0855   61.3521 H       1  ZINC000441887161    0.1700
     37 H37       -14.3178   -3.0023   62.0912 H       1  ZINC000441887161    0.1600
     38 H38       -14.0857   -1.2318   58.2868 H       1  ZINC000441887161    0.2000
     39 H39       -12.8176    0.2739   58.8661 H       1  ZINC000441887161    0.4200
     40 H40       -12.7905    0.3134   55.5147 H       1  ZINC000441887161    0.1300
     41 H41       -11.9054   -0.4492   53.3469 H       1  ZINC000441887161    0.1300
     42 H42        -9.6086    0.6958   51.5855 H       1  ZINC000441887161    0.0800
     43 H43        -8.3557   -0.2463   52.4288 H       1  ZINC000441887161    0.0800
     44 H44        -9.9265   -0.9928   52.0500 H       1  ZINC000441887161    0.0700
     45 H45        -7.7079    2.3820   53.6161 H       1  ZINC000441887161    0.0800
     46 H46        -7.1244    1.4924   55.0431 H       1  ZINC000441887161    0.0700
     47 H47        -7.3555    0.6413   53.4971 H       1  ZINC000441887161    0.0700
     48 H48        -9.0281    2.1061   56.4201 H       1  ZINC000441887161    0.1400
     49 H49        -7.6062   -0.1875   59.1464 H       1  ZINC000441887161    0.0800
     50 H50        -7.3512   -1.6535   60.1232 H       1  ZINC000441887161    0.0700
     51 H51        -8.6327   -1.6187   58.8884 H       1  ZINC000441887161    0.0600
     52 H52        -7.6359   -0.5014   62.2419 H       1  ZINC000441887161    0.1300
@<TRIPOS>BOND
     1     1     2    1
     2     1    29    1
     3     1    30    1
     4     1    31    1
     5     2    28   ar
     6     2     3   ar
     7     3     4   ar
     8     3    32    1
     9     4     5   ar
    10     4    33    1
    11     5     6    1
    12     5    26   ar
    13     6     7    1
    14     6     8    1
    15     6    14    1
    16     8     9    1
    17     8    34    1
    18     8    35    1
    19     9    13    1
    20     9    10    1
    21    10    11    2
    22    10    36    1
    23    11    12    1
    24    11    37    1
    25    12    13    2
    26    13    38    1
    27    14    15   am
    28    14    39    1
    29    15    16    2
    30    15    17    2
    31    15    18    1
    32    18    25   ar
    33    18    19   ar
    34    19    20   ar
    35    19    40    1
    36    20    21   ar
    37    20    41    1
    38    21    22    1
    39    21    23   ar
    40    22    42    1
    41    22    43    1
    42    22    44    1
    43    23    24    1
    44    23    25   ar
    45    24    45    1
    46    24    46    1
    47    24    47    1
    48    25    48    1
    49    26    27    1
    50    26    28   ar
    51    27    49    1
    52    27    50    1
    53    27    51    1
    54    28    52    1
@<TRIPOS>SUBSTRUCTURE
     1 ZINC000441887161        1 TEMP              0 ****  ****    0 ROOT


##########                                Name:    ZINC000440379747
##########                DOCK_Rotatable_Bonds:                   8
##########                         Heavy_Atoms:                  27
##########                    Molecular_Weight:             394.452
##########                DOCK_Rotatable_Bonds:                   8
##########                       Formal_Charge:           0.0199995
##########                     HBond_Acceptors:                  10
##########                        HBond_Donors:                   3
##########                         Heavy_Atoms:                  27
##########                          Grid_Score:          -27.022055
##########                     Grid_vdw_energy:          -27.745213
##########                      Grid_es_energy:            0.723157
##########           Internal_energy_repulsive:           31.969948

@<TRIPOS>MOLECULE
ZINC000440379747
 49 51 1 0 0
SMALL
USER_CHARGES


@<TRIPOS>ATOM
      1 C1          3.1699   -0.2424   47.9226 C.3     1  ZINC000440379747   -0.1800
      2 C2          2.3621    0.5362   48.9288 C.2     1  ZINC000440379747    0.5200
      3 O3          2.7833    0.6906   50.0557 O.2     1  ZINC000440379747   -0.5200
      4 N4          1.1716    1.0607   48.5765 N.am    1  ZINC000440379747   -0.5500
      5 C5          0.5603    0.9412   47.2502 C.3     1  ZINC000440379747    0.1100
      6 C6         -0.7746    1.6969   47.3514 C.3     1  ZINC000440379747   -0.0900
      7 C7         -0.8189    2.2038   48.7754 C.ar    1  ZINC000440379747   -0.1100
      8 C8         -1.7738    2.9457   49.4415 C.ar    1  ZINC000440379747   -0.0700
      9 C9         -1.5821    3.2935   50.7727 C.ar    1  ZINC000440379747    0.1200
     10 N10        -2.5484    4.0445   51.4490 N.am    1  ZINC000440379747   -0.6400
     11 C11        -3.3124    3.4639   52.3954 C.2     1  ZINC000440379747    0.5100
     12 O12        -3.1616    2.2890   52.6606 O.2     1  ZINC000440379747   -0.4900
     13 C13        -4.3445    4.2659   53.1176 C.2     1  ZINC000440379747    0.5200
     14 O14        -4.9978    5.0948   52.5184 O.2     1  ZINC000440379747   -0.5100
     15 N15        -4.5504    4.0693   54.4350 N.am    1  ZINC000440379747   -0.5800
     16 C16        -3.8314    3.1000   55.2818 C.3     1  ZINC000440379747    0.1000
     17 C17        -3.9513    3.6641   56.7195 C.3     1  ZINC000440379747   -0.1300
     18 C18        -5.3881    4.2494   56.7057 C.3     1  ZINC000440379747   -0.1600
     19 C19        -5.5249    4.7903   55.2668 C.3     1  ZINC000440379747    0.1500
     20 H20        -5.3139    5.8596   55.2511 H       1  ZINC000440379747    0.1000
     21 C21        -6.9402    4.5317   54.7461 C.3     1  ZINC000440379747   -0.6500
     22 S22        -7.1230    2.7733   54.3396 S.o2    1  ZINC000440379747    2.6200
     23 N23        -8.7127    2.6129   53.9045 N.am    1  ZINC000440379747   -1.2500
     24 O24        -6.4022    2.4574   53.1563 O.2     1  ZINC000440379747   -0.9500
     25 O25        -6.9975    1.9756   55.5088 O.2     1  ZINC000440379747   -0.9500
     26 C26        -0.4256    2.8911   51.4289 C.ar    1  ZINC000440379747   -0.1000
     27 C27         0.5260    2.1507   50.7622 C.ar    1  ZINC000440379747   -0.1400
     28 C28         0.3350    1.7941   49.4258 C.ar    1  ZINC000440379747    0.1400
     29 H29         4.0946   -0.5855   48.3863 H       1  ZINC000440379747    0.1000
     30 H30         2.5937   -1.1024   47.5813 H       1  ZINC000440379747    0.1000
     31 H31         3.4054    0.3977   47.0724 H       1  ZINC000440379747    0.1000
     32 H32         1.1993    1.4017   46.4966 H       1  ZINC000440379747    0.0900
     33 H33         0.3840   -0.1068   47.0081 H       1  ZINC000440379747    0.0900
     34 H34        -0.7931    2.5313   46.6501 H       1  ZINC000440379747    0.0900
     35 H35        -1.6089    1.0216   47.1621 H       1  ZINC000440379747    0.1000
     36 H36        -2.6710    3.2564   48.9268 H       1  ZINC000440379747    0.1400
     37 H37        -2.6690    4.9833   51.2370 H       1  ZINC000440379747    0.4200
     38 H38        -4.3020    2.1188   55.2187 H       1  ZINC000440379747    0.0800
     39 H39        -2.7846    3.0395   54.9840 H       1  ZINC000440379747    0.1000
     40 H40        -3.8604    2.8692   57.4599 H       1  ZINC000440379747    0.1000
     41 H41        -3.2125    4.4460   56.8954 H       1  ZINC000440379747    0.0800
     42 H42        -6.1242    3.4695   56.9000 H       1  ZINC000440379747    0.1000
     43 H43        -5.4818    5.0588   57.4299 H       1  ZINC000440379747    0.1000
     44 H44        -7.6650    4.8046   55.5130 H       1  ZINC000440379747    0.1500
     45 H45        -7.1135    5.1311   53.8524 H       1  ZINC000440379747    0.1400
     46 H46        -9.0583    1.7458   53.6407 H       1  ZINC000440379747    0.4100
     47 H47        -9.2984    3.3861   53.9134 H       1  ZINC000440379747    0.4200
     48 H48        -0.2721    3.1595   52.4636 H       1  ZINC000440379747    0.1400
     49 H49         1.4232    1.8410   51.2775 H       1  ZINC000440379747    0.1500
@<TRIPOS>BOND
     1     1     2    1
     2     1    29    1
     3     1    30    1
     4     1    31    1
     5     2     3    2
     6     2     4   am
     7     4    28    1
     8     4     5    1
     9     5     6    1
    10     5    32    1
    11     5    33    1
    12     6     7    1
    13     6    34    1
    14     6    35    1
    15     7    28   ar
    16     7     8   ar
    17     8     9   ar
    18     8    36    1
    19     9    10    1
    20     9    26   ar
    21    10    11   am
    22    10    37    1
    23    11    12    2
    24    11    13    1
    25    13    14    2
    26    13    15   am
    27    15    19    1
    28    15    16    1
    29    16    17    1
    30    16    38    1
    31    16    39    1
    32    17    18    1
    33    17    40    1
    34    17    41    1
    35    18    19    1
    36    18    42    1
    37    18    43    1
    38    19    20    1
    39    19    21    1
    40    21    22    1
    41    21    44    1
    42    21    45    1
    43    22    23   am
    44    22    24    2
    45    22    25    2
    46    23    46    1
    47    23    47    1
    48    26    27   ar
    49    26    48    1
    50    27    28   ar
    51    27    49    1
@<TRIPOS>SUBSTRUCTURE
     1 ZINC000440379747        1 TEMP              0 ****  ****    0 ROOT


##########                                Name:    ZINC001109404798
##########                DOCK_Rotatable_Bonds:                   7
##########                         Heavy_Atoms:                  25
##########                    Molecular_Weight:              360.48
##########                DOCK_Rotatable_Bonds:                   7
##########                       Formal_Charge:           0.0100002
##########                     HBond_Acceptors:                   7
##########                        HBond_Donors:                   1
##########                         Heavy_Atoms:                  25
##########                          Grid_Score:          -27.002815
##########                     Grid_vdw_energy:          -26.846619
##########                      Grid_es_energy:           -0.156197
##########           Internal_energy_repulsive:           24.807072

@<TRIPOS>MOLECULE
ZINC001109404798
 49 52 1 0 0
SMALL
USER_CHARGES


@<TRIPOS>ATOM
      1 C1        -13.2983    0.7786   48.7867 C.3     1  ZINC001109404798   -0.0600
      2 C2        -12.5235    1.0793   50.0439 C.2     1  ZINC001109404798    0.1700
      3 N3        -12.1817    2.2572   50.4734 N.2     1  ZINC001109404798   -0.3900
      4 O4        -11.5660    2.1623   51.5141 O.3     1  ZINC001109404798    0.1000
      5 C5        -11.4530    0.8758   51.8578 C.2     1  ZINC001109404798    0.1900
      6 C6        -10.7607    0.3308   53.0804 C.3     1  ZINC001109404798    0.1600
      7 H7        -10.4860    1.1541   53.7398 H       1  ZINC001109404798    0.1000
      8 C8         -9.5000   -0.4264   52.6576 C.3     1  ZINC001109404798   -0.1500
      9 N9        -11.6662   -0.5833   53.7893 N.3     1  ZINC001109404798   -0.4800
     10 C10       -12.9598    0.1039   54.1416 C.3     1  ZINC001109404798    0.0400
     11 H11       -13.5661    0.4373   53.2993 H       1  ZINC001109404798    0.1100
     12 C12       -12.4503    1.2294   55.0915 C.3     1  ZINC001109404798   -0.1600
     13 C13       -11.2381    0.5809   55.8038 C.3     1  ZINC001109404798   -0.1600
     14 C14       -11.1771   -0.8500   55.1890 C.3     1  ZINC001109404798    0.0400
     15 H15       -10.2147   -1.3557   55.2685 H       1  ZINC001109404798    0.1200
     16 C16       -12.3891   -1.6084   55.8092 C.3     1  ZINC001109404798    0.1500
     17 H17       -12.3325   -2.6730   55.5821 H       1  ZINC001109404798    0.1000
     18 N18       -12.4457   -1.3938   57.2572 N.am    1  ZINC001109404798   -0.7200
     19 C19       -12.8419   -2.3921   58.0714 C.2     1  ZINC001109404798    0.5100
     20 O20       -13.1501   -3.4685   57.6054 O.2     1  ZINC001109404798   -0.5300
     21 C21       -12.9018   -2.1708   59.5609 C.3     1  ZINC001109404798   -0.1300
     22 C22       -11.7171   -2.8717   60.2288 C.3     1  ZINC001109404798   -0.0400
     23 C23       -10.5326   -1.9405   60.2560 C.2     1  ZINC001109404798   -0.1000
     24 C24        -9.5744   -1.9712   59.3286 C.2     1  ZINC001109404798   -0.2100
     25 S25        -8.3652   -0.7458   59.6890 S.3     1  ZINC001109404798    0.1000
     26 C26        -9.2555   -0.2459   61.1211 C.2     1  ZINC001109404798   -0.2100
     27 C27       -10.3597   -0.9844   61.2418 C.2     1  ZINC001109404798   -0.1300
     28 C28       -13.6211   -0.9620   55.0666 C.3     1  ZINC001109404798   -0.1100
     29 N29       -12.0640    0.1784   50.9304 N.2     1  ZINC001109404798   -0.4800
     30 H30       -14.3653    0.7747   49.0096 H       1  ZINC001109404798    0.0900
     31 H31       -13.0864    1.5418   48.0380 H       1  ZINC001109404798    0.0900
     32 H32       -13.0037   -0.1983   48.4034 H       1  ZINC001109404798    0.0900
     33 H33        -8.8282    0.2519   52.1316 H       1  ZINC001109404798    0.0700
     34 H34        -8.9993   -0.8205   53.5420 H       1  ZINC001109404798    0.0800
     35 H35        -9.7747   -1.2497   51.9982 H       1  ZINC001109404798    0.0800
     36 H36       -12.1369    2.1023   54.5188 H       1  ZINC001109404798    0.0700
     37 H37       -13.2204    1.4995   55.8140 H       1  ZINC001109404798    0.0800
     38 H38       -10.3239    1.1322   55.5841 H       1  ZINC001109404798    0.0700
     39 H39       -11.4074    0.5295   56.8793 H       1  ZINC001109404798    0.0800
     40 H40       -12.1981   -0.5332   57.6301 H       1  ZINC001109404798    0.4000
     41 H41       -12.8577   -1.1023   59.7716 H       1  ZINC001109404798    0.0900
     42 H42       -13.8335   -2.5800   59.9518 H       1  ZINC001109404798    0.1000
     43 H43       -11.9860   -3.1475   61.2484 H       1  ZINC001109404798    0.0800
     44 H44       -11.4611   -3.7689   59.6652 H       1  ZINC001109404798    0.0800
     45 H45        -9.5451   -2.6457   58.4856 H       1  ZINC001109404798    0.1600
     46 H46        -8.9563    0.5418   61.7967 H       1  ZINC001109404798    0.1600
     47 H47       -11.0615   -0.8518   62.0520 H       1  ZINC001109404798    0.1400
     48 H48       -14.2838   -0.4704   55.7790 H       1  ZINC001109404798    0.0800
     49 H49       -14.1624   -1.7151   54.4939 H       1  ZINC001109404798    0.0900
@<TRIPOS>BOND
     1     1     2    1
     2     1    30    1
     3     1    31    1
     4     1    32    1
     5     2    29    1
     6     2     3    2
     7     3     4    1
     8     4     5    1
     9     5     6    1
    10     5    29    2
    11     6     7    1
    12     6     8    1
    13     6     9    1
    14     8    33    1
    15     8    34    1
    16     8    35    1
    17     9    14    1
    18     9    10    1
    19    10    11    1
    20    10    28    1
    21    10    12    1
    22    12    13    1
    23    12    36    1
    24    12    37    1
    25    13    14    1
    26    13    38    1
    27    13    39    1
    28    14    15    1
    29    14    16    1
    30    16    17    1
    31    16    18    1
    32    16    28    1
    33    18    19   am
    34    18    40    1
    35    19    20    2
    36    19    21    1
    37    21    22    1
    38    21    41    1
    39    21    42    1
    40    22    23    1
    41    22    43    1
    42    22    44    1
    43    23    27    1
    44    23    24    2
    45    24    25    1
    46    24    45    1
    47    25    26    1
    48    26    27    2
    49    26    46    1
    50    27    47    1
    51    28    48    1
    52    28    49    1
@<TRIPOS>SUBSTRUCTURE
     1 ZINC001109404798        1 TEMP              0 ****  ****    0 ROOT


##########                                Name:    ZINC000279593480
##########                DOCK_Rotatable_Bonds:                   9
##########                         Heavy_Atoms:                  23
##########                    Molecular_Weight:              340.85
##########                DOCK_Rotatable_Bonds:                   9
##########                       Formal_Charge:          -0.0500002
##########                     HBond_Acceptors:                   6
##########                        HBond_Donors:                   3
##########                         Heavy_Atoms:                  23
##########                          Grid_Score:          -27.001707
##########                     Grid_vdw_energy:          -25.679405
##########                      Grid_es_energy:           -1.322303
##########           Internal_energy_repulsive:           18.339796

@<TRIPOS>MOLECULE
ZINC000279593480
 48 49 1 0 0
SMALL
USER_CHARGES


@<TRIPOS>ATOM
      1 C1         -2.6492    2.5650   49.6045 C.3     1  ZINC000279593480   -0.1400
      2 C2         -3.2402    2.1529   50.9543 C.3     1  ZINC000279593480   -0.1400
      3 C3         -4.4692    3.0124   51.2567 C.3     1  ZINC000279593480    0.1700
      4 H4         -4.9384    3.3174   50.3214 H       1  ZINC000279593480    0.0900
      5 C5         -4.0424    4.2542   52.0419 C.3     1  ZINC000279593480   -0.0900
      6 C6         -3.6312    3.8511   53.4346 C.ar    1  ZINC000279593480   -0.0800
      7 C7         -2.3040    3.5821   53.7125 C.ar    1  ZINC000279593480   -0.1000
      8 C8         -1.9263    3.2124   54.9897 C.ar    1  ZINC000279593480   -0.1100
      9 C9         -2.8768    3.1115   55.9900 C.ar    1  ZINC000279593480   -0.0400
     10 Cl10       -2.4030    2.6477   57.5944 Cl      1  ZINC000279593480   -0.0700
     11 C11        -4.2049    3.3808   55.7111 C.ar    1  ZINC000279593480   -0.1100
     12 C12        -4.5806    3.7559   54.4350 C.ar    1  ZINC000279593480   -0.1000
     13 N13        -5.4243    2.2363   52.0517 N.am    1  ZINC000279593480   -0.7400
     14 C14        -6.7405    2.5188   51.9882 C.2     1  ZINC000279593480    0.7100
     15 O15        -7.1355    3.4169   51.2698 O.2     1  ZINC000279593480   -0.5800
     16 N16        -7.6190    1.8060   52.7207 N.am    1  ZINC000279593480   -0.7500
     17 C17        -9.0499    2.1120   52.6502 C.3     1  ZINC000279593480    0.1200
     18 C18        -9.8526    0.8101   52.6929 C.3     1  ZINC000279593480    0.0900
     19 O19        -9.4566   -0.0559   51.6273 O.3     1  ZINC000279593480   -0.5400
     20 C20        -9.6751    0.1093   54.0584 C.3     1  ZINC000279593480   -0.1900
     21 C21       -11.1034    0.0638   54.6454 C.3     1  ZINC000279593480    0.0500
     22 O22       -11.9766    0.1365   53.4972 O.3     1  ZINC000279593480   -0.3600
     23 C23       -11.3670    1.1052   52.6163 C.3     1  ZINC000279593480    0.0900
     24 H24       -11.5744    2.1173   52.9636 H       1  ZINC000279593480    0.0800
     25 C25       -11.8766    0.9190   51.1857 C.3     1  ZINC000279593480   -0.1400
     26 H26        -2.3584    3.6149   49.6405 H       1  ZINC000279593480    0.0600
     27 H27        -1.7736    1.9526   49.3891 H       1  ZINC000279593480    0.0400
     28 H28        -3.3946    2.4210   48.8223 H       1  ZINC000279593480    0.0600
     29 H29        -3.5310    1.1030   50.9183 H       1  ZINC000279593480    0.0600
     30 H30        -2.4948    2.2968   51.7364 H       1  ZINC000279593480    0.0700
     31 H31        -3.2014    4.7311   51.5386 H       1  ZINC000279593480    0.0800
     32 H32        -4.8767    4.9534   52.0975 H       1  ZINC000279593480    0.0900
     33 H33        -1.5622    3.6606   52.9315 H       1  ZINC000279593480    0.1300
     34 H34        -0.8894    3.0020   55.2067 H       1  ZINC000279593480    0.1300
     35 H35        -4.9473    3.3019   56.4915 H       1  ZINC000279593480    0.1300
     36 H36        -5.6172    3.9665   54.2173 H       1  ZINC000279593480    0.1300
     37 H37        -5.1092    1.5192   52.6239 H       1  ZINC000279593480    0.3900
     38 H38        -7.3037    1.0904   53.2947 H       1  ZINC000279593480    0.3900
     39 H39        -9.3295    2.7391   53.4967 H       1  ZINC000279593480    0.0800
     40 H40        -9.2632    2.6400   51.7208 H       1  ZINC000279593480    0.0800
     41 H41        -9.8744    0.1477   50.7793 H       1  ZINC000279593480    0.3700
     42 H42        -9.2860   -0.8997   53.9222 H       1  ZINC000279593480    0.0900
     43 H43        -9.0157    0.6902   54.7031 H       1  ZINC000279593480    0.0900
     44 H44       -11.2625   -0.8701   55.1845 H       1  ZINC000279593480    0.1000
     45 H45       -11.2704    0.9162   55.3037 H       1  ZINC000279593480    0.0600
     46 H46       -12.9548    1.0770   51.1606 H       1  ZINC000279593480    0.0600
     47 H47       -11.3884    1.6395   50.5295 H       1  ZINC000279593480    0.0700
     48 H48       -11.6496   -0.0922   50.8478 H       1  ZINC000279593480    0.0700
@<TRIPOS>BOND
     1     1     2    1
     2     1    26    1
     3     1    27    1
     4     1    28    1
     5     2     3    1
     6     2    29    1
     7     2    30    1
     8     3     4    1
     9     3     5    1
    10     3    13    1
    11     5     6    1
    12     5    31    1
    13     5    32    1
    14     6    12   ar
    15     6     7   ar
    16     7     8   ar
    17     7    33    1
    18     8     9   ar
    19     8    34    1
    20     9    10    1
    21     9    11   ar
    22    11    12   ar
    23    11    35    1
    24    12    36    1
    25    13    14   am
    26    13    37    1
    27    14    15    2
    28    14    16   am
    29    16    17    1
    30    16    38    1
    31    17    18    1
    32    17    39    1
    33    17    40    1
    34    18    23    1
    35    18    19    1
    36    18    20    1
    37    19    41    1
    38    20    21    1
    39    20    42    1
    40    20    43    1
    41    21    22    1
    42    21    44    1
    43    21    45    1
    44    22    23    1
    45    23    24    1
    46    23    25    1
    47    25    46    1
    48    25    47    1
    49    25    48    1
@<TRIPOS>SUBSTRUCTURE
     1 ZINC000279593480        1 TEMP              0 ****  ****    0 ROOT


##########                                Name:    ZINC001058772245
##########                DOCK_Rotatable_Bonds:                  11
##########                         Heavy_Atoms:                  22
##########                    Molecular_Weight:             335.375
##########                DOCK_Rotatable_Bonds:                  11
##########                       Formal_Charge:          0.00999964
##########                     HBond_Acceptors:                   9
##########                        HBond_Donors:                   2
##########                         Heavy_Atoms:                  22
##########                          Grid_Score:          -26.999123
##########                     Grid_vdw_energy:          -25.565643
##########                      Grid_es_energy:           -1.433479
##########           Internal_energy_repulsive:           56.884235

@<TRIPOS>MOLECULE
ZINC001058772245
 41 41 1 0 0
SMALL
USER_CHARGES


@<TRIPOS>ATOM
      1 C1         -5.9371    5.0621   55.2784 C.3     1  ZINC001058772245   -0.1700
      2 C2         -4.8760    4.4130   54.3875 C.3     1  ZINC001058772245   -0.1400
      3 C3         -4.3542    3.1415   55.0597 C.3     1  ZINC001058772245   -0.1500
      4 C4         -5.4852    4.0627   53.0544 C.2     1  ZINC001058772245    0.5300
      5 O5         -6.6360    4.3623   52.8161 O.2     1  ZINC001058772245   -0.5200
      6 N6         -4.7511    3.4165   52.1270 N.am    1  ZINC001058772245   -0.5900
      7 C7         -3.3610    3.0547   52.4149 C.3     1  ZINC001058772245    0.0800
      8 C8         -2.5516    3.0662   51.1166 C.3     1  ZINC001058772245    0.0400
      9 O9         -1.2133    2.6438   51.3858 O.3     1  ZINC001058772245   -0.5700
     10 C10        -5.3433    3.0760   50.8311 C.3     1  ZINC001058772245    0.1100
     11 C11        -5.7404    1.5984   50.8242 C.3     1  ZINC001058772245    0.1000
     12 N12        -7.0078    1.4301   51.5394 N.am    1  ZINC001058772245   -0.7100
     13 C13        -7.4427    0.1950   51.8584 C.2     1  ZINC001058772245    0.6000
     14 O14        -6.7821   -0.7800   51.5538 O.2     1  ZINC001058772245   -0.5300
     15 C15        -8.7176    0.0256   52.5758 C.2     1  ZINC001058772245    0.0000
     16 C16        -9.0133    0.6791   53.7220 C.2     1  ZINC001058772245   -0.2200
     17 S17       -10.5761    0.2137   54.2349 S.3     1  ZINC001058772245    0.2300
     18 C18       -10.7446   -0.8258   52.8906 C.2     1  ZINC001058772245    0.0000
     19 N19        -9.6919   -0.7836   52.1521 N.2     1  ZINC001058772245   -0.4400
     20 C20        -3.7183    5.3910   54.1781 C.3     1  ZINC001058772245    0.2900
     21 F21        -4.1074    6.6697   54.5913 F       1  ZINC001058772245   -0.1900
     22 F22        -2.6139    4.9742   54.9292 F       1  ZINC001058772245   -0.2000
     23 H23        -5.4510    5.5708   56.1108 H       1  ZINC001058772245    0.0800
     24 H24        -6.5088    5.7841   54.6952 H       1  ZINC001058772245    0.0700
     25 H25        -6.6077    4.2939   55.6636 H       1  ZINC001058772245    0.0900
     26 H26        -5.1005    2.3519   54.9724 H       1  ZINC001058772245    0.0800
     27 H27        -3.4318    2.8253   54.5725 H       1  ZINC001058772245    0.0700
     28 H28        -4.1586    3.3416   56.1132 H       1  ZINC001058772245    0.0900
     29 H29        -2.9358    3.7744   53.1146 H       1  ZINC001058772245    0.0900
     30 H30        -3.3286    2.0579   52.8547 H       1  ZINC001058772245    0.1200
     31 H31        -3.0092    2.3871   50.3972 H       1  ZINC001058772245    0.0600
     32 H32        -2.5383    4.0757   50.7057 H       1  ZINC001058772245    0.0700
     33 H33        -1.1474    1.7439   51.7336 H       1  ZINC001058772245    0.3800
     34 H34        -6.2275    3.6906   50.6628 H       1  ZINC001058772245    0.1000
     35 H35        -4.6166    3.2605   50.0398 H       1  ZINC001058772245    0.0900
     36 H36        -5.8559    1.2580   49.7952 H       1  ZINC001058772245    0.0700
     37 H37        -4.9648    1.0115   51.3163 H       1  ZINC001058772245    0.0700
     38 H38        -7.5340    2.2075   51.7834 H       1  ZINC001058772245    0.4100
     39 H39        -8.3679    1.3802   54.2302 H       1  ZINC001058772245    0.1900
     40 H40       -11.6150   -1.4317   52.6867 H       1  ZINC001058772245    0.2100
     41 H41        -3.4506    5.4164   53.1218 H       1  ZINC001058772245    0.1200
@<TRIPOS>BOND
     1     1     2    1
     2     1    23    1
     3     1    24    1
     4     1    25    1
     5     2     3    1
     6     2     4    1
     7     2    20    1
     8     3    26    1
     9     3    27    1
    10     3    28    1
    11     4     5    2
    12     4     6   am
    13     6     7    1
    14     6    10    1
    15     7     8    1
    16     7    29    1
    17     7    30    1
    18     8     9    1
    19     8    31    1
    20     8    32    1
    21     9    33    1
    22    10    11    1
    23    10    34    1
    24    10    35    1
    25    11    12    1
    26    11    36    1
    27    11    37    1
    28    12    13   am
    29    12    38    1
    30    13    14    2
    31    13    15    1
    32    15    19    1
    33    15    16    2
    34    16    17    1
    35    16    39    1
    36    17    18    1
    37    18    19    2
    38    18    40    1
    39    20    21    1
    40    20    22    1
    41    20    41    1
@<TRIPOS>SUBSTRUCTURE
     1 ZINC001058772245        1 TEMP              0 ****  ****    0 ROOT


##########                                Name:    ZINC000859202493
##########                DOCK_Rotatable_Bonds:                  11
##########                         Heavy_Atoms:                  25
##########                    Molecular_Weight:             382.404
##########                DOCK_Rotatable_Bonds:                  11
##########                       Formal_Charge:          -0.0200009
##########                     HBond_Acceptors:                  10
##########                        HBond_Donors:                   3
##########                         Heavy_Atoms:                  25
##########                          Grid_Score:          -26.968992
##########                     Grid_vdw_energy:          -28.148230
##########                      Grid_es_energy:            1.179237
##########           Internal_energy_repulsive:           18.754742

@<TRIPOS>MOLECULE
ZINC000859202493
 46 46 1 0 0
SMALL
USER_CHARGES


@<TRIPOS>ATOM
      1 C1        -14.8499   -2.6803   61.0398 C.3     1  ZINC000859202493   -0.1500
      2 C2        -14.0265   -2.1761   59.8529 C.3     1  ZINC000859202493   -0.1200
      3 C3        -12.9187   -1.2494   60.3577 C.3     1  ZINC000859202493   -0.1000
      4 H4        -12.3066   -1.7790   61.0878 H       1  ZINC000859202493    0.0700
      5 C5        -13.5441   -0.0172   61.0144 C.3     1  ZINC000859202493   -0.1600
      6 C6        -12.0443   -0.8117   59.1809 C.3     1  ZINC000859202493   -0.1200
      7 C7        -10.7107   -1.5600   59.2303 C.3     1  ZINC000859202493    0.1600
      8 H8        -10.0521   -1.1806   58.4491 H       1  ZINC000859202493    0.1000
      9 C9        -10.9558   -3.0541   59.0095 C.3     1  ZINC000859202493    0.0500
     10 O10        -9.7543   -3.6698   58.5410 O.3     1  ZINC000859202493   -0.5700
     11 N11       -10.0845   -1.3562   60.5388 N.am    1  ZINC000859202493   -1.1000
     12 S12        -8.5264   -0.8031   60.6339 S.o2    1  ZINC000859202493    2.6900
     13 O13        -8.2674   -0.5681   62.0113 O.2     1  ZINC000859202493   -0.9500
     14 O14        -7.7412   -1.6759   59.8333 O.2     1  ZINC000859202493   -0.9500
     15 C15        -8.4826    0.7712   59.8437 C.ar    1  ZINC000859202493   -0.6600
     16 C16        -9.1078    1.8559   60.4304 C.ar    1  ZINC000859202493   -0.0300
     17 C17        -9.0761    3.0931   59.8131 C.ar    1  ZINC000859202493   -0.1100
     18 C18        -8.4191    3.2488   58.6085 C.ar    1  ZINC000859202493   -0.0600
     19 C19        -7.7897    2.1612   58.0168 C.ar    1  ZINC000859202493    0.1200
     20 N20        -7.1227    2.3158   56.7965 N.am    1  ZINC000859202493   -0.6500
     21 C21        -7.8232    2.5660   55.6726 C.2     1  ZINC000859202493    0.4800
     22 O22        -9.0317    2.6572   55.7189 O.2     1  ZINC000859202493   -0.4500
     23 C23        -7.1048    2.7325   54.3584 C.3     1  ZINC000859202493    0.4600
     24 F24        -7.3262    4.0231   53.8661 F       1  ZINC000859202493   -0.1500
     25 F25        -5.7330    2.5349   54.5485 F       1  ZINC000859202493   -0.1600
     26 F26        -7.5884    1.7940   53.4405 F       1  ZINC000859202493   -0.1600
     27 C27        -7.8188    0.9216   58.6417 C.ar    1  ZINC000859202493   -0.0300
     28 H28       -15.6392   -3.3404   60.6801 H       1  ZINC000859202493    0.0500
     29 H29       -14.2025   -3.2277   61.7248 H       1  ZINC000859202493    0.0500
     30 H30       -15.2948   -1.8319   61.5599 H       1  ZINC000859202493    0.0600
     31 H31       -13.5817   -3.0245   59.3328 H       1  ZINC000859202493    0.0600
     32 H32       -14.6739   -1.6287   59.1679 H       1  ZINC000859202493    0.0600
     33 H33       -12.7548    0.6429   61.3740 H       1  ZINC000859202493    0.0500
     34 H34       -14.1562    0.5123   60.2842 H       1  ZINC000859202493    0.0600
     35 H35       -14.1670   -0.3291   61.8527 H       1  ZINC000859202493    0.0600
     36 H36       -12.5542   -1.0394   58.2449 H       1  ZINC000859202493    0.0800
     37 H37       -11.8615    0.2611   59.2434 H       1  ZINC000859202493    0.0800
     38 H38       -11.2579   -3.5156   59.9496 H       1  ZINC000859202493    0.0600
     39 H39       -11.7448   -3.1873   58.2693 H       1  ZINC000859202493    0.0600
     40 H40        -8.9757   -3.4728   59.0793 H       1  ZINC000859202493    0.3800
     41 H41       -10.5823   -1.5450   61.3496 H       1  ZINC000859202493    0.4200
     42 H42        -9.6223    1.7367   61.3724 H       1  ZINC000859202493    0.1500
     43 H43        -9.5661    3.9384   60.2735 H       1  ZINC000859202493    0.1400
     44 H44        -8.3951    4.2151   58.1268 H       1  ZINC000859202493    0.1400
     45 H45        -6.1561    2.2429   56.7595 H       1  ZINC000859202493    0.4200
     46 H46        -7.3304    0.0739   58.1841 H       1  ZINC000859202493    0.1500
@<TRIPOS>BOND
     1     1     2    1
     2     1    28    1
     3     1    29    1
     4     1    30    1
     5     2     3    1
     6     2    31    1
     7     2    32    1
     8     3     4    1
     9     3     5    1
    10     3     6    1
    11     5    33    1
    12     5    34    1
    13     5    35    1
    14     6     7    1
    15     6    36    1
    16     6    37    1
    17     7     8    1
    18     7     9    1
    19     7    11    1
    20     9    10    1
    21     9    38    1
    22     9    39    1
    23    10    40    1
    24    11    12   am
    25    11    41    1
    26    12    13    2
    27    12    14    2
    28    12    15    1
    29    15    27   ar
    30    15    16   ar
    31    16    17   ar
    32    16    42    1
    33    17    18   ar
    34    17    43    1
    35    18    19   ar
    36    18    44    1
    37    19    20    1
    38    19    27   ar
    39    20    21   am
    40    20    45    1
    41    21    22    2
    42    21    23    1
    43    23    24    1
    44    23    25    1
    45    23    26    1
    46    27    46    1
@<TRIPOS>SUBSTRUCTURE
     1 ZINC000859202493        1 TEMP              0 ****  ****    0 ROOT


##########                                Name:    ZINC001009984555
##########                DOCK_Rotatable_Bonds:                   7
##########                         Heavy_Atoms:                  23
##########                    Molecular_Weight:             338.446
##########                DOCK_Rotatable_Bonds:                   7
##########                       Formal_Charge:           0.0400002
##########                     HBond_Acceptors:                   6
##########                        HBond_Donors:                   1
##########                         Heavy_Atoms:                  23
##########                          Grid_Score:          -26.938799
##########                     Grid_vdw_energy:          -26.788303
##########                      Grid_es_energy:           -0.150495
##########           Internal_energy_repulsive:           13.510013

@<TRIPOS>MOLECULE
ZINC001009984555
 46 47 1 0 0
SMALL
USER_CHARGES


@<TRIPOS>ATOM
      1 C1        -15.3336   -5.0716   57.1171 C.3     1  ZINC001009984555   -0.1400
      2 S2        -16.3511   -4.3989   58.4597 S.3     1  ZINC001009984555   -0.1800
      3 C3        -15.7725   -2.6847   58.5908 C.3     1  ZINC001009984555   -0.1300
      4 C4        -14.4989   -2.6446   59.3954 C.2     1  ZINC001009984555    0.5500
      5 O5        -14.5422   -2.7341   60.6041 O.2     1  ZINC001009984555   -0.5100
      6 N6        -13.3117   -2.5091   58.7718 N.am    1  ZINC001009984555   -0.6100
      7 C7        -13.1154   -2.3820   57.3163 C.3     1  ZINC001009984555    0.1000
      8 C8        -11.7570   -1.6537   57.1615 C.3     1  ZINC001009984555   -0.1100
      9 H9        -11.8731   -0.5780   57.2931 H       1  ZINC001009984555    0.1000
     10 C10       -11.1153   -1.9717   55.8094 C.3     1  ZINC001009984555    0.1300
     11 N11       -11.9703   -1.4667   54.7323 N.am    1  ZINC001009984555   -0.7300
     12 C12       -11.8279   -0.1992   54.2968 C.2     1  ZINC001009984555    0.5600
     13 O13       -10.9891    0.5245   54.7970 O.2     1  ZINC001009984555   -0.5200
     14 C14       -12.6920    0.3110   53.2110 C.ar    1  ZINC001009984555   -0.1200
     15 C15       -13.9619    0.8109   53.5026 C.ar    1  ZINC001009984555   -0.0900
     16 C16       -14.7644    1.2858   52.4855 C.ar    1  ZINC001009984555   -0.1000
     17 C17       -14.3137    1.2673   51.1782 C.ar    1  ZINC001009984555   -0.1200
     18 C18       -13.0538    0.7724   50.8805 C.ar    1  ZINC001009984555    0.0900
     19 F19       -12.6200    0.7573   49.6012 F       1  ZINC001009984555   -0.1300
     20 C20       -12.2386    0.2998   51.8911 C.ar    1  ZINC001009984555   -0.0500
     21 C21       -10.8687   -0.2381   51.5673 C.3     1  ZINC001009984555   -0.1200
     22 C22       -10.9380   -2.2714   58.3257 C.3     1  ZINC001009984555   -0.1200
     23 C23       -11.9986   -2.4572   59.4310 C.3     1  ZINC001009984555    0.1400
     24 H24       -11.8195   -3.3914   59.9633 H       1  ZINC001009984555    0.0800
     25 C25       -11.9422   -1.2822   60.4092 C.3     1  ZINC001009984555   -0.1700
     26 H26       -14.2807   -5.0046   57.3907 H       1  ZINC001009984555    0.0800
     27 H27       -15.5993   -6.1150   56.9475 H       1  ZINC001009984555    0.1100
     28 H28       -15.5094   -4.4993   56.2063 H       1  ZINC001009984555    0.0800
     29 H29       -15.5848   -2.2873   57.5933 H       1  ZINC001009984555    0.1100
     30 H30       -16.5336   -2.0811   59.0851 H       1  ZINC001009984555    0.1100
     31 H31       -13.0728   -3.3672   56.8517 H       1  ZINC001009984555    0.0800
     32 H32       -13.9165   -1.7884   56.8758 H       1  ZINC001009984555    0.0800
     33 H33       -10.1368   -1.4947   55.7504 H       1  ZINC001009984555    0.0800
     34 H34       -11.0003   -3.0507   55.7065 H       1  ZINC001009984555    0.0800
     35 H35       -12.6389   -2.0447   54.3323 H       1  ZINC001009984555    0.4000
     36 H36       -14.3162    0.8256   54.5227 H       1  ZINC001009984555    0.1300
     37 H37       -15.7472    1.6727   52.7110 H       1  ZINC001009984555    0.1400
     38 H38       -14.9463    1.6396   50.3859 H       1  ZINC001009984555    0.1400
     39 H39       -10.1248    0.5424   51.7270 H       1  ZINC001009984555    0.0800
     40 H40       -10.6494   -1.0871   52.2147 H       1  ZINC001009984555    0.1000
     41 H41       -10.8410   -0.5587   50.5259 H       1  ZINC001009984555    0.0600
     42 H42       -10.5110   -3.2299   58.0307 H       1  ZINC001009984555    0.0900
     43 H43       -10.1576   -1.5852   58.6546 H       1  ZINC001009984555    0.0900
     44 H44       -12.1399   -0.3536   59.8735 H       1  ZINC001009984555    0.0600
     45 H45       -12.6935   -1.4202   61.1866 H       1  ZINC001009984555    0.0700
     46 H46       -10.9528   -1.2354   60.8642 H       1  ZINC001009984555    0.0700
@<TRIPOS>BOND
     1     1     2    1
     2     1    26    1
     3     1    27    1
     4     1    28    1
     5     2     3    1
     6     3     4    1
     7     3    29    1
     8     3    30    1
     9     4     5    2
    10     4     6   am
    11     6    23    1
    12     6     7    1
    13     7     8    1
    14     7    31    1
    15     7    32    1
    16     8     9    1
    17     8    10    1
    18     8    22    1
    19    10    11    1
    20    10    33    1
    21    10    34    1
    22    11    12   am
    23    11    35    1
    24    12    13    2
    25    12    14    1
    26    14    20   ar
    27    14    15   ar
    28    15    16   ar
    29    15    36    1
    30    16    17   ar
    31    16    37    1
    32    17    18   ar
    33    17    38    1
    34    18    19    1
    35    18    20   ar
    36    20    21    1
    37    21    39    1
    38    21    40    1
    39    21    41    1
    40    22    23    1
    41    22    42    1
    42    22    43    1
    43    23    24    1
    44    23    25    1
    45    25    44    1
    46    25    45    1
    47    25    46    1
@<TRIPOS>SUBSTRUCTURE
     1 ZINC001009984555        1 TEMP              0 ****  ****    0 ROOT


##########                                Name:    ZINC001139743874
##########                DOCK_Rotatable_Bonds:                   5
##########                         Heavy_Atoms:                  28
##########                    Molecular_Weight:             382.506
##########                DOCK_Rotatable_Bonds:                   5
##########                       Formal_Charge:           0.0199992
##########                     HBond_Acceptors:                   6
##########                        HBond_Donors:                   0
##########                         Heavy_Atoms:                  28
##########                          Grid_Score:          -26.936975
##########                     Grid_vdw_energy:          -27.425966
##########                      Grid_es_energy:            0.488991
##########           Internal_energy_repulsive:           35.985336

@<TRIPOS>MOLECULE
ZINC001139743874
 58 61 1 0 0
SMALL
USER_CHARGES


@<TRIPOS>ATOM
      1 C1        -13.1046   -2.3768   60.7106 C.3     1  ZINC001139743874   -0.1800
      2 C2        -13.4041   -0.9827   60.1556 C.3     1  ZINC001139743874    0.1400
      3 C3        -14.8161   -0.9607   59.5668 C.3     1  ZINC001139743874   -0.1800
      4 C4        -13.3054    0.0469   61.2830 C.3     1  ZINC001139743874   -0.1400
      5 O5        -12.4419   -0.6580   59.1179 O.3     1  ZINC001139743874   -0.3600
      6 C6        -12.4061   -1.4673   58.0425 C.2     1  ZINC001139743874    0.6500
      7 O7        -13.1363   -2.4370   57.9874 O.2     1  ZINC001139743874   -0.5700
      8 N8        -11.5606   -1.2019   57.0271 N.am    1  ZINC001139743874   -0.5900
      9 C9        -10.6952   -0.0662   57.0754 C.3     1  ZINC001139743874    0.1000
     10 C10       -11.3069    1.2710   56.5688 C.3     1  ZINC001139743874   -0.1300
     11 C11       -12.1747    0.9939   55.3072 C.3     1  ZINC001139743874   -0.0900
     12 C12       -11.5545   -0.0364   54.4217 C.3     1  ZINC001139743874   -0.0800
     13 C13       -11.5088    0.3064   52.9279 C.3     1  ZINC001139743874    0.0100
     14 N14       -10.1514    0.8333   53.1981 N.3     1  ZINC001139743874   -0.4700
     15 C15        -9.2123    0.4358   52.1408 C.3     1  ZINC001139743874    0.0600
     16 C16        -8.0647    1.4114   52.0954 C.ar    1  ZINC001139743874   -0.1200
     17 C17        -8.2498    2.7252   52.5217 C.ar    1  ZINC001139743874    0.1500
     18 N18        -7.2738    3.6002   52.4961 N.ar    1  ZINC001139743874   -0.4600
     19 C19        -6.0566    3.2688   52.0595 C.ar    1  ZINC001139743874    0.0800
     20 C20        -5.0093    4.2117   52.0337 C.ar    1  ZINC001139743874   -0.0400
     21 C21        -3.7884    3.8083   51.5758 C.ar    1  ZINC001139743874   -0.1600
     22 C22        -3.6032    2.4942   51.1492 C.ar    1  ZINC001139743874    0.1300
     23 N23        -4.5792    1.6193   51.1743 N.ar    1  ZINC001139743874   -0.4700
     24 C24        -5.7966    1.9508   51.6113 C.ar    1  ZINC001139743874    0.0800
     25 C25        -6.8422    1.0068   51.6420 C.ar    1  ZINC001139743874   -0.0400
     26 C26       -10.0219   -0.0474   54.3817 C.3     1  ZINC001139743874    0.0000
     27 C27       -12.1713   -1.4070   54.7176 C.3     1  ZINC001139743874   -0.1300
     28 C28       -11.5027   -2.0941   55.8263 C.3     1  ZINC001139743874    0.1400
     29 H29       -13.1749   -3.1104   59.9075 H       1  ZINC001139743874    0.0900
     30 H30       -12.0987   -2.3924   61.1300 H       1  ZINC001139743874    0.0600
     31 H31       -13.8270   -2.6206   61.4897 H       1  ZINC001139743874    0.0700
     32 H32       -15.5384   -1.2045   60.3459 H       1  ZINC001139743874    0.0700
     33 H33       -15.0295    0.0325   59.1716 H       1  ZINC001139743874    0.0600
     34 H34       -14.8864   -1.6943   58.7637 H       1  ZINC001139743874    0.0900
     35 H35       -12.2995    0.0313   61.7024 H       1  ZINC001139743874    0.0700
     36 H36       -13.5188    1.0400   60.8876 H       1  ZINC001139743874    0.0700
     37 H37       -14.0278   -0.1969   62.0620 H       1  ZINC001139743874    0.0800
     38 H38       -10.3749    0.0747   58.1077 H       1  ZINC001139743874    0.0700
     39 H39        -9.8113   -0.2854   56.4764 H       1  ZINC001139743874    0.0900
     40 H40       -11.9298    1.7055   57.3507 H       1  ZINC001139743874    0.0700
     41 H41       -10.5052    1.9643   56.3140 H       1  ZINC001139743874    0.0800
     42 H42       -13.1582    0.6455   55.6224 H       1  ZINC001139743874    0.0600
     43 H43       -12.2911    1.9209   54.7457 H       1  ZINC001139743874    0.0700
     44 H44       -11.5199   -0.5668   52.2756 H       1  ZINC001139743874    0.0700
     45 H45       -12.2262    1.0711   52.6300 H       1  ZINC001139743874    0.0900
     46 H46        -8.8313   -0.5638   52.3502 H       1  ZINC001139743874    0.0600
     47 H47        -9.7265    0.4347   51.1797 H       1  ZINC001139743874    0.0900
     48 H48        -9.2213    3.0300   52.8818 H       1  ZINC001139743874    0.1700
     49 H49        -5.1687    5.2265   52.3670 H       1  ZINC001139743874    0.1500
     50 H50        -2.9657    4.5073   51.5437 H       1  ZINC001139743874    0.1500
     51 H51        -2.6318    2.1893   50.7887 H       1  ZINC001139743874    0.1700
     52 H52        -6.6817   -0.0090   51.3119 H       1  ZINC001139743874    0.1400
     53 H53        -9.5561    0.4358   55.2406 H       1  ZINC001139743874    0.1000
     54 H54        -9.5948   -1.0249   54.1579 H       1  ZINC001139743874    0.0700
     55 H55       -13.2241   -1.2738   54.9664 H       1  ZINC001139743874    0.0700
     56 H56       -12.0976   -2.0272   53.8242 H       1  ZINC001139743874    0.0800
     57 H57       -10.4645   -2.2944   55.5616 H       1  ZINC001139743874    0.0800
     58 H58       -12.0154   -3.0320   56.0397 H       1  ZINC001139743874    0.1000
@<TRIPOS>BOND
     1     1     2    1
     2     1    29    1
     3     1    30    1
     4     1    31    1
     5     2     3    1
     6     2     4    1
     7     2     5    1
     8     3    32    1
     9     3    33    1
    10     3    34    1
    11     4    35    1
    12     4    36    1
    13     4    37    1
    14     5     6    1
    15     6     7    2
    16     6     8   am
    17     8    28    1
    18     8     9    1
    19     9    10    1
    20     9    38    1
    21     9    39    1
    22    10    11    1
    23    10    40    1
    24    10    41    1
    25    11    12    1
    26    11    42    1
    27    11    43    1
    28    12    26    1
    29    12    13    1
    30    12    27    1
    31    13    14    1
    32    13    44    1
    33    13    45    1
    34    14    15    1
    35    14    26    1
    36    15    16    1
    37    15    46    1
    38    15    47    1
    39    16    25   ar
    40    16    17   ar
    41    17    18   ar
    42    17    48    1
    43    18    19   ar
    44    19    24   ar
    45    19    20   ar
    46    20    21   ar
    47    20    49    1
    48    21    22   ar
    49    21    50    1
    50    22    23   ar
    51    22    51    1
    52    23    24   ar
    53    24    25   ar
    54    25    52    1
    55    26    53    1
    56    26    54    1
    57    27    28    1
    58    27    55    1
    59    27    56    1
    60    28    57    1
    61    28    58    1
@<TRIPOS>SUBSTRUCTURE
     1 ZINC001139743874        1 TEMP              0 ****  ****    0 ROOT


##########                                Name:    ZINC000433533595
##########                DOCK_Rotatable_Bonds:                  10
##########                         Heavy_Atoms:                  24
##########                    Molecular_Weight:             397.312
##########                DOCK_Rotatable_Bonds:                  10
##########                       Formal_Charge:          0.00999916
##########                     HBond_Acceptors:                   5
##########                        HBond_Donors:                   1
##########                         Heavy_Atoms:                  24
##########                          Grid_Score:          -26.936825
##########                     Grid_vdw_energy:          -26.208279
##########                      Grid_es_energy:           -0.728547
##########           Internal_energy_repulsive:           13.297460

@<TRIPOS>MOLECULE
ZINC000433533595
 49 50 1 0 0
SMALL
USER_CHARGES


@<TRIPOS>ATOM
      1 C1         -6.4904    3.6931   52.2733 C.3     1  ZINC000433533595   -0.1500
      2 C2         -7.7467    3.1708   51.5735 C.3     1  ZINC000433533595   -0.1200
      3 C3         -8.7356    2.6531   52.6199 C.3     1  ZINC000433533595   -0.1300
      4 C4         -8.1885    1.3695   53.2475 C.3     1  ZINC000433533595    0.1000
      5 N5         -9.2416    0.7238   54.0352 N.am    1  ZINC000433533595   -0.5500
      6 C6         -9.5248    1.1694   55.2753 C.2     1  ZINC000433533595    0.5100
      7 O7         -8.9074    2.1055   55.7393 O.2     1  ZINC000433533595   -0.5100
      8 C8        -10.5982    0.5112   56.0782 C.2     1  ZINC000433533595    0.5000
      9 O9        -11.6855    1.0400   56.1868 O.2     1  ZINC000433533595   -0.4900
     10 N10       -10.3597   -0.6697   56.6823 N.am    1  ZINC000433533595   -0.6300
     11 C11       -11.3651   -1.2861   57.4343 C.ar    1  ZINC000433533595    0.1200
     12 C12       -12.3133   -2.0823   56.8080 C.ar    1  ZINC000433533595   -0.0600
     13 C13       -13.3062   -2.6905   57.5540 C.ar    1  ZINC000433533595   -0.1100
     14 Br14      -14.5975   -3.7757   56.6990 Br      1  ZINC000433533595   -0.0400
     15 C15       -13.3567   -2.5074   58.9243 C.ar    1  ZINC000433533595   -0.0600
     16 C16       -12.4149   -1.7154   59.5551 C.ar    1  ZINC000433533595   -0.1900
     17 C17       -11.4138   -1.1072   58.8160 C.ar    1  ZINC000433533595    0.1300
     18 O18       -10.4872   -0.3281   59.4354 O.3     1  ZINC000433533595   -0.3100
     19 C19        -9.7376   -0.9285   60.4935 C.3     1  ZINC000433533595    0.0800
     20 C20        -8.2570   -0.9693   60.1101 C.3     1  ZINC000433533595   -0.1500
     21 C21        -9.9110   -0.1058   61.7718 C.3     1  ZINC000433533595   -0.1800
     22 C22        -9.9868   -0.4063   53.4750 C.3     1  ZINC000433533595    0.0600
     23 C23       -11.3335   -0.1063   52.8140 C.3     1  ZINC000433533595   -0.1900
     24 C24       -10.1244   -0.4767   51.9527 C.3     1  ZINC000433533595   -0.1800
     25 H25        -6.0286    2.8856   52.8414 H       1  ZINC000433533595    0.0500
     26 H26        -5.7860    4.0620   51.5277 H       1  ZINC000433533595    0.0500
     27 H27        -6.7617    4.5040   52.9493 H       1  ZINC000433533595    0.0500
     28 H28        -8.2085    3.9783   51.0054 H       1  ZINC000433533595    0.0700
     29 H29        -7.4754    2.3599   50.8974 H       1  ZINC000433533595    0.0600
     30 H30        -8.8721    3.4070   53.3952 H       1  ZINC000433533595    0.0600
     31 H31        -9.6933    2.4448   52.1431 H       1  ZINC000433533595    0.0700
     32 H32        -7.8571    0.6926   52.4600 H       1  ZINC000433533595    0.1100
     33 H33        -7.3468    1.6122   53.8960 H       1  ZINC000433533595    0.0800
     34 H34        -9.4909   -1.0921   56.5956 H       1  ZINC000433533595    0.4300
     35 H35       -12.2762   -2.2265   55.7383 H       1  ZINC000433533595    0.1600
     36 H36       -14.1341   -2.9842   59.5029 H       1  ZINC000433533595    0.1400
     37 H37       -12.4574   -1.5746   60.6250 H       1  ZINC000433533595    0.1500
     38 H38       -10.0972   -1.9434   60.6630 H       1  ZINC000433533595    0.0800
     39 H39        -7.8975    0.0456   59.9406 H       1  ZINC000433533595    0.0700
     40 H40        -7.6852   -1.4273   60.9173 H       1  ZINC000433533595    0.0800
     41 H41        -8.1334   -1.5554   59.1994 H       1  ZINC000433533595    0.0700
     42 H42        -9.5514    0.9091   61.6022 H       1  ZINC000433533595    0.0700
     43 H43       -10.9658   -0.0767   62.0449 H       1  ZINC000433533595    0.0600
     44 H44        -9.3392   -0.5637   62.5789 H       1  ZINC000433533595    0.0800
     45 H45        -9.8897   -1.3478   54.0156 H       1  ZINC000433533595    0.1400
     46 H46       -12.1230   -0.8503   52.9198 H       1  ZINC000433533595    0.0900
     47 H47       -11.6651    0.9319   52.7959 H       1  ZINC000433533595    0.1400
     48 H48        -9.6605    0.3178   51.3683 H       1  ZINC000433533595    0.1000
     49 H49       -10.1183   -1.4645   51.4921 H       1  ZINC000433533595    0.1000
@<TRIPOS>BOND
     1     1     2    1
     2     1    25    1
     3     1    26    1
     4     1    27    1
     5     2     3    1
     6     2    28    1
     7     2    29    1
     8     3     4    1
     9     3    30    1
    10     3    31    1
    11     4     5    1
    12     4    32    1
    13     4    33    1
    14     5     6   am
    15     5    22    1
    16     6     7    2
    17     6     8    1
    18     8     9    2
    19     8    10   am
    20    10    11    1
    21    10    34    1
    22    11    17   ar
    23    11    12   ar
    24    12    13   ar
    25    12    35    1
    26    13    14    1
    27    13    15   ar
    28    15    16   ar
    29    15    36    1
    30    16    17   ar
    31    16    37    1
    32    17    18    1
    33    18    19    1
    34    19    20    1
    35    19    21    1
    36    19    38    1
    37    20    39    1
    38    20    40    1
    39    20    41    1
    40    21    42    1
    41    21    43    1
    42    21    44    1
    43    22    24    1
    44    22    23    1
    45    22    45    1
    46    23    24    1
    47    23    46    1
    48    23    47    1
    49    24    48    1
    50    24    49    1
@<TRIPOS>SUBSTRUCTURE
     1 ZINC000433533595        1 TEMP              0 ****  ****    0 ROOT


##########                                Name:    ZINC000549659617
##########                DOCK_Rotatable_Bonds:                   9
##########                         Heavy_Atoms:                  28
##########                    Molecular_Weight:              418.48
##########                DOCK_Rotatable_Bonds:                   9
##########                       Formal_Charge:          0.00999956
##########                     HBond_Acceptors:                   9
##########                        HBond_Donors:                   1
##########                         Heavy_Atoms:                  28
##########                          Grid_Score:          -26.920506
##########                     Grid_vdw_energy:          -26.382843
##########                      Grid_es_energy:           -0.537662
##########           Internal_energy_repulsive:           19.092871

@<TRIPOS>MOLECULE
ZINC000549659617
 53 55 1 0 0
SMALL
USER_CHARGES


@<TRIPOS>ATOM
      1 C1         -8.3654    2.8724   57.8613 C.3     1  ZINC000549659617   -0.1500
      2 C2         -8.4922    2.1910   56.4972 C.3     1  ZINC000549659617   -0.1500
      3 C3         -9.9719    2.0343   56.1412 C.3     1  ZINC000549659617    0.1100
      4 N4        -10.2227    0.6638   55.6882 N.am    1  ZINC000549659617   -0.6100
      5 C5        -10.3730   -0.3269   56.5895 C.2     1  ZINC000549659617    0.7100
      6 O6        -10.5825   -1.4641   56.2137 O.2     1  ZINC000549659617   -0.5700
      7 N7        -10.2908   -0.0571   57.9075 N.am    1  ZINC000549659617   -0.7400
      8 C8        -10.4559   -1.1338   58.8872 C.3     1  ZINC000549659617    0.2300
      9 H9         -9.9235   -2.0213   58.5450 H       1  ZINC000549659617    0.1100
     10 C10        -9.8970   -0.6939   60.2158 C.ar    1  ZINC000549659617   -0.0900
     11 C11        -8.6061   -1.0380   60.5704 C.ar    1  ZINC000549659617   -0.0800
     12 C12        -8.0933   -0.6344   61.7894 C.ar    1  ZINC000549659617   -0.1100
     13 C13        -8.8713    0.1133   62.6530 C.ar    1  ZINC000549659617   -0.0700
     14 C14       -10.1623    0.4582   62.2979 C.ar    1  ZINC000549659617   -0.1800
     15 C15       -11.0107    1.2730   63.2397 C.3     1  ZINC000549659617    0.5100
     16 F16       -10.6341    1.0020   64.5596 F       1  ZINC000549659617   -0.1800
     17 F17       -10.8281    2.6342   62.9727 F       1  ZINC000549659617   -0.1700
     18 F18       -12.3576    0.9394   63.0612 F       1  ZINC000549659617   -0.1700
     19 C19       -10.6734    0.0584   61.0775 C.ar    1  ZINC000549659617   -0.0500
     20 C20       -11.9429   -1.4589   59.0419 C.3     1  ZINC000549659617   -0.1700
     21 C21       -12.4189   -2.8327   58.5653 C.3     1  ZINC000549659617   -0.1700
     22 C22       -12.3291   -2.5313   60.0627 C.3     1  ZINC000549659617   -0.1800
     23 C23       -10.3102    0.3703   54.2556 C.3     1  ZINC000549659617    0.1700
     24 H24       -10.3454   -0.7075   54.0971 H       1  ZINC000549659617    0.1100
     25 C25        -9.1002    0.9719   53.5195 C.3     1  ZINC000549659617   -0.1400
     26 C26        -9.3824    0.9501   52.0041 C.3     1  ZINC000549659617   -0.5900
     27 S27       -11.2034    1.0427   51.8577 S.o2    1  ZINC000549659617    2.3900
     28 O28       -11.5681    2.3000   51.3049 O.2     1  ZINC000549659617   -0.9300
     29 O29       -11.6903   -0.1564   51.2708 O.2     1  ZINC000549659617   -0.9400
     30 C30       -11.5736    1.0371   53.6531 C.3     1  ZINC000549659617   -0.6100
     31 H31        -7.3112    2.9840   58.1151 H       1  ZINC000549659617    0.0600
     32 H32        -8.8356    3.8549   57.8217 H       1  ZINC000549659617    0.0600
     33 H33        -8.8590    2.2636   58.6189 H       1  ZINC000549659617    0.0600
     34 H34        -7.9986    2.7998   55.7397 H       1  ZINC000549659617    0.0700
     35 H35        -8.0220    1.2084   56.5369 H       1  ZINC000549659617    0.0700
     36 H36       -10.5814    2.2437   57.0203 H       1  ZINC000549659617    0.0800
     37 H37       -10.2301    2.7329   55.3453 H       1  ZINC000549659617    0.0900
     38 H38       -10.1224    0.8499   58.2073 H       1  ZINC000549659617    0.4000
     39 H39        -7.9982   -1.6222   59.8956 H       1  ZINC000549659617    0.1300
     40 H40        -7.0850   -0.9038   62.0668 H       1  ZINC000549659617    0.1400
     41 H41        -8.4710    0.4279   63.6054 H       1  ZINC000549659617    0.1400
     42 H42       -11.6817    0.3278   60.8001 H       1  ZINC000549659617    0.1400
     43 H43       -12.6239   -0.6176   58.9137 H       1  ZINC000549659617    0.1100
     44 H44       -13.4134   -2.8952   58.1233 H       1  ZINC000549659617    0.0900
     45 H45       -11.6728   -3.5048   58.1416 H       1  ZINC000549659617    0.0900
     46 H46       -11.5237   -3.0050   60.6239 H       1  ZINC000549659617    0.1200
     47 H47       -13.2643   -2.3955   60.6058 H       1  ZINC000549659617    0.0900
     48 H48        -8.9448    1.9994   53.8486 H       1  ZINC000549659617    0.1100
     49 H49        -8.2095    0.3816   53.7349 H       1  ZINC000549659617    0.0900
     50 H50        -8.9196    1.8103   51.5204 H       1  ZINC000549659617    0.1400
     51 H51        -9.0140    0.0237   51.5637 H       1  ZINC000549659617    0.1400
     52 H52       -12.4632    0.4432   53.8630 H       1  ZINC000549659617    0.1400
     53 H53       -11.6892    2.0543   54.0274 H       1  ZINC000549659617    0.1600
@<TRIPOS>BOND
     1     1     2    1
     2     1    31    1
     3     1    32    1
     4     1    33    1
     5     2     3    1
     6     2    34    1
     7     2    35    1
     8     3     4    1
     9     3    36    1
    10     3    37    1
    11     4     5   am
    12     4    23    1
    13     5     6    2
    14     5     7   am
    15     7     8    1
    16     7    38    1
    17     8     9    1
    18     8    10    1
    19     8    20    1
    20    10    19   ar
    21    10    11   ar
    22    11    12   ar
    23    11    39    1
    24    12    13   ar
    25    12    40    1
    26    13    14   ar
    27    13    41    1
    28    14    15    1
    29    14    19   ar
    30    15    16    1
    31    15    17    1
    32    15    18    1
    33    19    42    1
    34    20    22    1
    35    20    21    1
    36    20    43    1
    37    21    22    1
    38    21    44    1
    39    21    45    1
    40    22    46    1
    41    22    47    1
    42    23    24    1
    43    23    30    1
    44    23    25    1
    45    25    26    1
    46    25    48    1
    47    25    49    1
    48    26    27    1
    49    26    50    1
    50    26    51    1
    51    27    28    2
    52    27    29    2
    53    27    30    1
    54    30    52    1
    55    30    53    1
@<TRIPOS>SUBSTRUCTURE
     1 ZINC000549659617        1 TEMP              0 ****  ****    0 ROOT


##########                                Name:    ZINC000032503012
##########                DOCK_Rotatable_Bonds:                   8
##########                         Heavy_Atoms:                  27
##########                    Molecular_Weight:             390.503
##########                DOCK_Rotatable_Bonds:                   8
##########                       Formal_Charge:           0.0099995
##########                     HBond_Acceptors:                   7
##########                        HBond_Donors:                   2
##########                         Heavy_Atoms:                  27
##########                          Grid_Score:          -26.901112
##########                     Grid_vdw_energy:          -25.218147
##########                      Grid_es_energy:           -1.682965
##########           Internal_energy_repulsive:          156.209656

@<TRIPOS>MOLECULE
ZINC000032503012
 53 54 1 0 0
SMALL
USER_CHARGES


@<TRIPOS>ATOM
      1 C1         -5.4036    2.6379   55.8096 C.3     1  ZINC000032503012   -0.1200
      2 C2         -4.6443    3.7320   55.1042 C.ar    1  ZINC000032503012   -0.0500
      3 C3         -4.6148    5.0069   55.6380 C.ar    1  ZINC000032503012   -0.1600
      4 C4         -3.9189    6.0131   54.9932 C.ar    1  ZINC000032503012   -0.0700
      5 C5         -3.2514    5.7463   53.8137 C.ar    1  ZINC000032503012   -0.1500
      6 C6         -3.2796    4.4675   53.2759 C.ar    1  ZINC000032503012    0.1300
      7 O7         -2.6233    4.2024   52.1157 O.3     1  ZINC000032503012   -0.2800
      8 C8         -2.6965    2.8642   51.6201 C.3     1  ZINC000032503012    0.0700
      9 H9         -2.2761    2.1801   52.3573 H       1  ZINC000032503012    0.1100
     10 C10        -4.1585    2.4965   51.3586 C.3     1  ZINC000032503012   -0.1800
     11 C11        -1.9151    2.7608   50.3357 C.2     1  ZINC000032503012    0.5200
     12 O12        -2.4844    2.4896   49.2997 O.2     1  ZINC000032503012   -0.4900
     13 N13        -0.5836    2.9697   50.3383 N.am    1  ZINC000032503012   -0.6700
     14 C14         0.1420    2.8736   49.1457 C.ar    1  ZINC000032503012    0.1300
     15 C15         0.2298    3.9674   48.2948 C.ar    1  ZINC000032503012   -0.0600
     16 C16         0.9469    3.8694   47.1183 C.ar    1  ZINC000032503012   -0.1200
     17 C17         1.5764    2.6838   46.7873 C.ar    1  ZINC000032503012   -0.0300
     18 C18         1.4905    1.5924   47.6325 C.ar    1  ZINC000032503012   -0.6600
     19 S19         2.2946    0.0836   47.2061 S.o2    1  ZINC000032503012    2.7000
     20 O20         1.2976   -0.9281   47.2480 O.2     1  ZINC000032503012   -0.9600
     21 O21         3.0756    0.3577   46.0511 O.2     1  ZINC000032503012   -0.9500
     22 N22         3.3638   -0.2627   48.4223 N.am    1  ZINC000032503012   -1.1100
     23 C23         4.4422    0.6769   48.7392 C.3     1  ZINC000032503012    0.1700
     24 C24         3.8874    1.8229   49.5874 C.3     1  ZINC000032503012   -0.1900
     25 C25         5.5393   -0.0503   49.5193 C.3     1  ZINC000032503012   -0.1500
     26 C26         5.0263    1.2391   47.4416 C.3     1  ZINC000032503012   -0.1800
     27 C27         0.7807    1.6859   48.8134 C.ar    1  ZINC000032503012   -0.0400
     28 C28        -3.9735    3.4587   53.9276 C.ar    1  ZINC000032503012   -0.2100
     29 H29        -4.7434    2.1346   56.5159 H       1  ZINC000032503012    0.0700
     30 H30        -6.2485    3.0697   56.3461 H       1  ZINC000032503012    0.0700
     31 H31        -5.7681    1.9181   55.0767 H       1  ZINC000032503012    0.0700
     32 H32        -5.1364    5.2175   56.5599 H       1  ZINC000032503012    0.1300
     33 H33        -3.8977    7.0083   55.4119 H       1  ZINC000032503012    0.1300
     34 H34        -2.7084    6.5325   53.3103 H       1  ZINC000032503012    0.1300
     35 H35        -4.7237    2.5713   52.2876 H       1  ZINC000032503012    0.0800
     36 H36        -4.5789    3.1805   50.6214 H       1  ZINC000032503012    0.0800
     37 H37        -4.2143    1.4757   50.9806 H       1  ZINC000032503012    0.0800
     38 H38        -0.1282    3.1866   51.1669 H       1  ZINC000032503012    0.4100
     39 H39        -0.2623    4.8936   48.5524 H       1  ZINC000032503012    0.1400
     40 H40         1.0156    4.7197   46.4560 H       1  ZINC000032503012    0.1400
     41 H41         2.1361    2.6096   45.8666 H       1  ZINC000032503012    0.1500
     42 H42         3.2759   -1.0877   48.9249 H       1  ZINC000032503012    0.4200
     43 H43         3.3161    1.4144   50.4210 H       1  ZINC000032503012    0.0700
     44 H44         4.7122    2.4230   49.9715 H       1  ZINC000032503012    0.0800
     45 H45         3.2383    2.4478   48.9738 H       1  ZINC000032503012    0.0700
     46 H46         5.9346   -0.8667   48.9150 H       1  ZINC000032503012    0.0700
     47 H47         6.3417    0.6488   49.7549 H       1  ZINC000032503012    0.0700
     48 H48         5.1231   -0.4508   50.4437 H       1  ZINC000032503012    0.0600
     49 H49         4.3076    1.9192   46.9843 H       1  ZINC000032503012    0.0900
     50 H50         5.9476    1.7785   47.6616 H       1  ZINC000032503012    0.0700
     51 H51         5.2398    0.4204   46.7545 H       1  ZINC000032503012    0.0600
     52 H52         0.7139    0.8333   49.4729 H       1  ZINC000032503012    0.1400
     53 H53        -3.9969    2.4625   53.5110 H       1  ZINC000032503012    0.1300
@<TRIPOS>BOND
     1     1     2    1
     2     1    29    1
     3     1    30    1
     4     1    31    1
     5     2    28   ar
     6     2     3   ar
     7     3     4   ar
     8     3    32    1
     9     4     5   ar
    10     4    33    1
    11     5     6   ar
    12     5    34    1
    13     6     7    1
    14     6    28   ar
    15     7     8    1
    16     8     9    1
    17     8    10    1
    18     8    11    1
    19    10    35    1
    20    10    36    1
    21    10    37    1
    22    11    12    2
    23    11    13   am
    24    13    14    1
    25    13    38    1
    26    14    27   ar
    27    14    15   ar
    28    15    16   ar
    29    15    39    1
    30    16    17   ar
    31    16    40    1
    32    17    18   ar
    33    17    41    1
    34    18    19    1
    35    18    27   ar
    36    19    20    2
    37    19    21    2
    38    19    22   am
    39    22    23    1
    40    22    42    1
    41    23    24    1
    42    23    25    1
    43    23    26    1
    44    24    43    1
    45    24    44    1
    46    24    45    1
    47    25    46    1
    48    25    47    1
    49    25    48    1
    50    26    49    1
    51    26    50    1
    52    26    51    1
    53    27    52    1
    54    28    53    1
@<TRIPOS>SUBSTRUCTURE
     1 ZINC000032503012        1 TEMP              0 ****  ****    0 ROOT


##########                                Name:    ZINC000530457945
##########                DOCK_Rotatable_Bonds:                   4
##########                         Heavy_Atoms:                  25
##########                    Molecular_Weight:             355.827
##########                DOCK_Rotatable_Bonds:                   4
##########                       Formal_Charge:           0.0199997
##########                     HBond_Acceptors:                   7
##########                        HBond_Donors:                   1
##########                         Heavy_Atoms:                  25
##########                          Grid_Score:          -26.893904
##########                     Grid_vdw_energy:          -27.057850
##########                      Grid_es_energy:            0.163946
##########           Internal_energy_repulsive:           32.955070

@<TRIPOS>MOLECULE
ZINC000530457945
 43 46 1 0 0
SMALL
USER_CHARGES


@<TRIPOS>ATOM
      1 C1         -0.9628    2.0533   47.4278 C.3     1  ZINC000530457945   -0.1700
      2 C2         -0.6186    2.0561   48.9185 C.3     1  ZINC000530457945    0.0900
      3 H3         -0.8544    1.0857   49.3553 H       1  ZINC000530457945    0.1100
      4 C4         -1.4154    3.1639   49.6392 C.3     1  ZINC000530457945   -0.1200
      5 H5         -1.7138    3.9427   48.9375 H       1  ZINC000530457945    0.1100
      6 C6         -2.6208    2.5862   50.3352 C.2     1  ZINC000530457945    0.5300
      7 O7         -2.6470    1.4091   50.6259 O.2     1  ZINC000530457945   -0.4700
      8 N8         -3.6698    3.3778   50.6345 N.am    1  ZINC000530457945   -0.6200
      9 C9         -4.7876    2.8421   51.2780 C.2     1  ZINC000530457945    0.4800
     10 N10        -5.3925    1.7202   50.9443 N.2     1  ZINC000530457945   -0.3000
     11 N11        -6.4604    1.5472   51.8365 N.pl3   1  ZINC000530457945   -0.2800
     12 C12        -7.4115    0.5856   51.9701 C.2     1  ZINC000530457945    0.1400
     13 C13        -8.3455    0.6723   52.9455 C.2     1  ZINC000530457945   -0.0800
     14 Cl14       -9.5526   -0.5655   53.1007 Cl      1  ZINC000530457945   -0.0200
     15 C15        -8.3406    1.7599   53.8320 C.2     1  ZINC000530457945   -0.0500
     16 C16        -7.3902    2.7275   53.7047 C.2     1  ZINC000530457945   -0.0900
     17 C17        -6.4292    2.6179   52.6839 C.2     1  ZINC000530457945    0.3000
     18 N18        -5.4024    3.3824   52.3254 N.2     1  ZINC000530457945   -0.5500
     19 C19        -0.3945    3.7152   50.6691 C.3     1  ZINC000530457945   -0.1200
     20 C20         0.9343    3.6096   49.8798 C.3     1  ZINC000530457945    0.0400
     21 N21         0.8138    2.3539   49.1020 N.3     1  ZINC000530457945   -0.4900
     22 C22         1.4638    2.4637   47.8706 C.ar    1  ZINC000530457945    0.1000
     23 C23         2.2754    1.4315   47.4174 C.ar    1  ZINC000530457945   -0.1600
     24 C24         2.9163    1.5432   46.1991 C.ar    1  ZINC000530457945   -0.1100
     25 C25         2.7511    2.6811   45.4310 C.ar    1  ZINC000530457945   -0.1300
     26 C26         1.9439    3.7105   45.8791 C.ar    1  ZINC000530457945   -0.1100
     27 C27         1.2955    3.6030   47.0938 C.ar    1  ZINC000530457945   -0.1000
     28 H28        -0.3083    1.3558   46.9051 H       1  ZINC000530457945    0.0700
     29 H29        -2.0004    1.7469   47.2951 H       1  ZINC000530457945    0.0600
     30 H30        -0.8250    3.0552   47.0212 H       1  ZINC000530457945    0.0600
     31 H31        -3.6483    4.3196   50.4031 H       1  ZINC000530457945    0.4300
     32 H32        -7.4222   -0.2548   51.2918 H       1  ZINC000530457945    0.1800
     33 H33        -9.0860    1.8297   54.6104 H       1  ZINC000530457945    0.1600
     34 H34        -7.3752    3.5700   54.3801 H       1  ZINC000530457945    0.1700
     35 H35        -0.6166    4.7518   50.9226 H       1  ZINC000530457945    0.0900
     36 H36        -0.3678    3.0931   51.5637 H       1  ZINC000530457945    0.0900
     37 H37         1.0470    4.4626   49.2107 H       1  ZINC000530457945    0.0700
     38 H38         1.7792    3.5497   50.5656 H       1  ZINC000530457945    0.0900
     39 H39         2.4054    0.5429   48.0171 H       1  ZINC000530457945    0.1200
     40 H40         3.5474    0.7410   45.8461 H       1  ZINC000530457945    0.1200
     41 H41         3.2540    2.7662   44.4789 H       1  ZINC000530457945    0.1200
     42 H42         1.8170    4.5980   45.2768 H       1  ZINC000530457945    0.1300
     43 H43         0.6650    4.4072   47.4431 H       1  ZINC000530457945    0.1300
@<TRIPOS>BOND
     1     1     2    1
     2     1    28    1
     3     1    29    1
     4     1    30    1
     5     2     3    1
     6     2    21    1
     7     2     4    1
     8     4     5    1
     9     4     6    1
    10     4    19    1
    11     6     7    2
    12     6     8   am
    13     8     9    1
    14     8    31    1
    15     9    18    1
    16     9    10    2
    17    10    11    1
    18    11    17    1
    19    11    12    1
    20    12    13    2
    21    12    32    1
    22    13    14    1
    23    13    15    1
    24    15    16    2
    25    15    33    1
    26    16    17    1
    27    16    34    1
    28    17    18    2
    29    19    20    1
    30    19    35    1
    31    19    36    1
    32    20    21    1
    33    20    37    1
    34    20    38    1
    35    21    22    1
    36    22    27   ar
    37    22    23   ar
    38    23    24   ar
    39    23    39    1
    40    24    25   ar
    41    24    40    1
    42    25    26   ar
    43    25    41    1
    44    26    27   ar
    45    26    42    1
    46    27    43    1
@<TRIPOS>SUBSTRUCTURE
     1 ZINC000530457945        1 TEMP              0 ****  ****    0 ROOT


##########                                Name:    ZINC001312809190
##########                DOCK_Rotatable_Bonds:                   6
##########                         Heavy_Atoms:                  29
##########                    Molecular_Weight:             395.501
##########                DOCK_Rotatable_Bonds:                   6
##########                       Formal_Charge:           0.0199995
##########                     HBond_Acceptors:                   6
##########                        HBond_Donors:                   1
##########                         Heavy_Atoms:                  29
##########                          Grid_Score:          -26.884653
##########                     Grid_vdw_energy:          -26.474409
##########                      Grid_es_energy:           -0.410243
##########           Internal_energy_repulsive:           30.768055

@<TRIPOS>MOLECULE
ZINC001312809190
 58 61 1 0 0
SMALL
USER_CHARGES


@<TRIPOS>ATOM
      1 C1         -5.2455    2.4623   51.2298 C.3     1  ZINC001312809190    0.0300
      2 O2         -3.9237    2.8328   50.8326 O.3     1  ZINC001312809190   -0.3200
      3 C3         -3.1231    3.3779   51.7859 C.ar    1  ZINC001312809190    0.1300
      4 C4         -1.8214    3.7423   51.4748 C.ar    1  ZINC001312809190   -0.2100
      5 C5         -1.0096    4.2967   52.4457 C.ar    1  ZINC001312809190   -0.0800
      6 C6         -1.4935    4.4878   53.7264 C.ar    1  ZINC001312809190   -0.1300
      7 C7         -2.7907    4.1248   54.0393 C.ar    1  ZINC001312809190   -0.0500
      8 C8         -3.3148    4.3341   55.4366 C.3     1  ZINC001312809190    0.1200
      9 H9         -3.1383    5.3660   55.7402 H       1  ZINC001312809190    0.0500
     10 C10        -2.5930    3.3888   56.3990 C.3     1  ZINC001312809190   -0.1400
     11 N11        -4.7569    4.0551   55.4657 N.3     1  ZINC001312809190   -0.5300
     12 C12        -5.4515    4.9692   56.3821 C.3     1  ZINC001312809190    0.0300
     13 C13        -6.9649    4.7685   56.2487 C.3     1  ZINC001312809190    0.1400
     14 N14        -7.2662    3.3425   56.4458 N.am    1  ZINC001312809190   -0.6300
     15 C15        -8.2105    2.9499   57.3236 C.2     1  ZINC001312809190    0.7100
     16 O16        -8.8264    3.7790   57.9652 O.2     1  ZINC001312809190   -0.5800
     17 N17        -8.4722    1.6383   57.4901 N.am    1  ZINC001312809190   -0.7300
     18 C18        -9.4987    1.2116   58.4443 C.3     1  ZINC001312809190    0.1800
     19 H19       -10.1437    2.0463   58.7188 H       1  ZINC001312809190    0.1200
     20 C20       -10.3115    0.0592   57.8868 C.ar    1  ZINC001312809190   -0.1900
     21 C21       -10.9001   -0.1484   56.6594 C.ar    1  ZINC001312809190   -0.0500
     22 C22       -11.5917   -1.3218   56.4138 C.ar    1  ZINC001312809190   -0.1500
     23 C23       -11.6885   -2.2816   57.4040 C.ar    1  ZINC001312809190   -0.0800
     24 C24       -11.1025   -2.0740   58.6357 C.ar    1  ZINC001312809190   -0.1400
     25 C25       -10.4078   -0.8948   58.8920 C.ar    1  ZINC001312809190    0.1100
     26 O26        -9.7777   -0.4814   60.0258 O.3     1  ZINC001312809190   -0.2900
     27 C27        -8.8563    0.5736   59.6988 C.3     1  ZINC001312809190    0.0800
     28 H28        -7.8722    0.1678   59.4643 H       1  ZINC001312809190    0.0900
     29 C29        -8.7644    1.5865   60.8417 C.3     1  ZINC001312809190   -0.1500
     30 C30        -6.5100    2.3562   55.6591 C.3     1  ZINC001312809190    0.1200
     31 C31        -5.0146    2.6519   55.8158 C.3     1  ZINC001312809190    0.0400
     32 C32        -3.6082    3.5759   53.0707 C.ar    1  ZINC001312809190   -0.1500
     33 H33        -5.7767    2.0413   50.3763 H       1  ZINC001312809190    0.1000
     34 H34        -5.1910    1.7199   52.0261 H       1  ZINC001312809190    0.0600
     35 H35        -5.7769    3.3431   51.5900 H       1  ZINC001312809190    0.0600
     36 H36        -1.4426    3.5925   50.4745 H       1  ZINC001312809190    0.1300
     37 H37         0.0039    4.5806   52.2039 H       1  ZINC001312809190    0.1300
     38 H38        -0.8573    4.9210   54.4841 H       1  ZINC001312809190    0.1300
     39 H39        -2.7695    2.3568   56.0955 H       1  ZINC001312809190    0.0700
     40 H40        -1.5230    3.5958   56.3775 H       1  ZINC001312809190    0.0600
     41 H41        -2.9721    3.5402   57.4097 H       1  ZINC001312809190    0.0600
     42 H42        -5.1457    4.7587   57.4070 H       1  ZINC001312809190    0.0400
     43 H43        -5.1976    5.9989   56.1306 H       1  ZINC001312809190    0.1000
     44 H44        -7.4807    5.3598   57.0052 H       1  ZINC001312809190    0.1000
     45 H45        -7.2889    5.0773   55.2548 H       1  ZINC001312809190    0.0700
     46 H46        -7.9810    0.9769   56.9781 H       1  ZINC001312809190    0.4000
     47 H47       -10.8223    0.6042   55.8887 H       1  ZINC001312809190    0.1200
     48 H48       -12.0544   -1.4868   55.4520 H       1  ZINC001312809190    0.1300
     49 H49       -12.2259   -3.1985   57.2125 H       1  ZINC001312809190    0.1300
     50 H50       -11.1832   -2.8288   59.4040 H       1  ZINC001312809190    0.1300
     51 H51        -8.3936    1.0900   61.7384 H       1  ZINC001312809190    0.0800
     52 H52        -8.0817    2.3889   60.5620 H       1  ZINC001312809190    0.0800
     53 H53        -9.7525    2.0024   61.0390 H       1  ZINC001312809190    0.0700
     54 H54        -6.7252    1.3526   56.0259 H       1  ZINC001312809190    0.0800
     55 H55        -6.7904    2.4332   54.6086 H       1  ZINC001312809190    0.0800
     56 H56        -4.4438    2.0010   55.1535 H       1  ZINC001312809190    0.0900
     57 H57        -4.7149    2.4737   56.8485 H       1  ZINC001312809190    0.0400
     58 H58        -4.6213    3.2930   53.3154 H       1  ZINC001312809190    0.1300
@<TRIPOS>BOND
     1     1     2    1
     2     1    33    1
     3     1    34    1
     4     1    35    1
     5     2     3    1
     6     3    32   ar
     7     3     4   ar
     8     4     5   ar
     9     4    36    1
    10     5     6   ar
    11     5    37    1
    12     6     7   ar
    13     6    38    1
    14     7     8    1
    15     7    32   ar
    16     8     9    1
    17     8    10    1
    18     8    11    1
    19    10    39    1
    20    10    40    1
    21    10    41    1
    22    11    31    1
    23    11    12    1
    24    12    13    1
    25    12    42    1
    26    12    43    1
    27    13    14    1
    28    13    44    1
    29    13    45    1
    30    14    15   am
    31    14    30    1
    32    15    16    2
    33    15    17   am
    34    17    18    1
    35    17    46    1
    36    18    19    1
    37    18    27    1
    38    18    20    1
    39    20    25   ar
    40    20    21   ar
    41    21    22   ar
    42    21    47    1
    43    22    23   ar
    44    22    48    1
    45    23    24   ar
    46    23    49    1
    47    24    25   ar
    48    24    50    1
    49    25    26    1
    50    26    27    1
    51    27    28    1
    52    27    29    1
    53    29    51    1
    54    29    52    1
    55    29    53    1
    56    30    31    1
    57    30    54    1
    58    30    55    1
    59    31    56    1
    60    31    57    1
    61    32    58    1
@<TRIPOS>SUBSTRUCTURE
     1 ZINC001312809190        1 TEMP              0 ****  ****    0 ROOT


##########                                Name:    ZINC000885154703
##########                DOCK_Rotatable_Bonds:                   5
##########                         Heavy_Atoms:                  24
##########                    Molecular_Weight:             396.259
##########                DOCK_Rotatable_Bonds:                   5
##########                       Formal_Charge:          -0.0099998
##########                     HBond_Acceptors:                   6
##########                        HBond_Donors:                   1
##########                         Heavy_Atoms:                  24
##########                          Grid_Score:          -26.883120
##########                     Grid_vdw_energy:          -26.056208
##########                      Grid_es_energy:           -0.826912
##########           Internal_energy_repulsive:            8.046659

@<TRIPOS>MOLECULE
ZINC000885154703
 43 45 1 0 0
SMALL
USER_CHARGES


@<TRIPOS>ATOM
      1 C1        -14.0317   -0.3670   47.8484 C.3     1  ZINC000885154703   -0.1500
      2 C2        -13.6991    0.9832   48.4867 C.3     1  ZINC000885154703   -0.0300
      3 C3        -13.3359    0.7783   49.9349 C.2     1  ZINC000885154703    0.1700
      4 N4        -14.1561    0.7905   50.9426 N.2     1  ZINC000885154703   -0.3800
      5 O5        -13.5535    0.5939   51.9769 O.3     1  ZINC000885154703    0.0800
      6 C6        -12.2521    0.4327   51.7192 C.2     1  ZINC000885154703    0.1800
      7 C7        -11.1636    0.1685   52.7273 C.3     1  ZINC000885154703    0.0000
      8 H8        -11.0447   -0.9049   52.8753 H       1  ZINC000885154703    0.1300
      9 C9        -11.5070    0.8517   54.0671 C.3     1  ZINC000885154703   -0.1200
     10 C10       -10.1411    1.3516   54.5997 C.3     1  ZINC000885154703   -0.1300
     11 C11        -9.4230    1.8219   53.3105 C.3     1  ZINC000885154703    0.1400
     12 H12        -9.7629    2.8178   53.0262 H       1  ZINC000885154703    0.1000
     13 N13        -7.9704    1.8120   53.5001 N.am    1  ZINC000885154703   -0.7100
     14 C14        -7.3424    2.9150   53.9534 C.2     1  ZINC000885154703    0.5700
     15 O15        -7.9812    3.9187   54.2035 O.2     1  ZINC000885154703   -0.5100
     16 C16        -5.8781    2.9045   54.1462 C.ar    1  ZINC000885154703   -0.1600
     17 C17        -5.3394    2.7549   55.4278 C.ar    1  ZINC000885154703    0.1500
     18 F18        -6.1568    2.6195   56.4948 F       1  ZINC000885154703   -0.1200
     19 C19        -3.9669    2.7456   55.5997 C.ar    1  ZINC000885154703   -0.1500
     20 C20        -3.1302    2.8841   54.5086 C.ar    1  ZINC000885154703   -0.0400
     21 C21        -3.6582    3.0325   53.2364 C.ar    1  ZINC000885154703   -0.1100
     22 Br22       -2.5020    3.2211   51.7521 Br      1  ZINC000885154703   -0.0300
     23 C23        -5.0247    3.0380   53.0488 C.ar    1  ZINC000885154703    0.0100
     24 C24        -5.5960    3.1992   51.6636 C.3     1  ZINC000885154703   -0.1300
     25 C25        -9.8383    0.7843   52.2456 C.3     1  ZINC000885154703   -0.1300
     26 N26       -12.1041    0.5433   50.4209 N.2     1  ZINC000885154703   -0.4800
     27 H27       -13.1648   -1.0242   47.9160 H       1  ZINC000885154703    0.0600
     28 H28       -14.8728   -0.8197   48.3733 H       1  ZINC000885154703    0.0600
     29 H29       -14.2944   -0.2188   46.8009 H       1  ZINC000885154703    0.0700
     30 H30       -12.8580    1.4359   47.9617 H       1  ZINC000885154703    0.1000
     31 H31       -14.5660    1.6404   48.4190 H       1  ZINC000885154703    0.0900
     32 H32       -12.1835    1.6910   53.9050 H       1  ZINC000885154703    0.0800
     33 H33       -11.9470    0.1341   54.7595 H       1  ZINC000885154703    0.0900
     34 H34       -10.2770    2.1829   55.2914 H       1  ZINC000885154703    0.0800
     35 H35        -9.5908    0.5391   55.0740 H       1  ZINC000885154703    0.0800
     36 H36        -7.4605    1.0116   53.2993 H       1  ZINC000885154703    0.4000
     37 H37        -3.5484    2.6302   56.5887 H       1  ZINC000885154703    0.1500
     38 H38        -2.0593    2.8768   54.6485 H       1  ZINC000885154703    0.1500
     39 H39        -5.7206    2.2179   51.2055 H       1  ZINC000885154703    0.0900
     40 H40        -6.5637    3.6970   51.7253 H       1  ZINC000885154703    0.0800
     41 H41        -4.9167    3.7991   51.0580 H       1  ZINC000885154703    0.0900
     42 H42        -9.0751    0.0107   52.1607 H       1  ZINC000885154703    0.0900
     43 H43        -9.9825    1.2745   51.2829 H       1  ZINC000885154703    0.0800
@<TRIPOS>BOND
     1     1     2    1
     2     1    27    1
     3     1    28    1
     4     1    29    1
     5     2     3    1
     6     2    30    1
     7     2    31    1
     8     3    26    1
     9     3     4    2
    10     4     5    1
    11     5     6    1
    12     6     7    1
    13     6    26    2
    14     7     8    1
    15     7    25    1
    16     7     9    1
    17     9    10    1
    18     9    32    1
    19     9    33    1
    20    10    11    1
    21    10    34    1
    22    10    35    1
    23    11    12    1
    24    11    13    1
    25    11    25    1
    26    13    14   am
    27    13    36    1
    28    14    15    2
    29    14    16    1
    30    16    23   ar
    31    16    17   ar
    32    17    18    1
    33    17    19   ar
    34    19    20   ar
    35    19    37    1
    36    20    21   ar
    37    20    38    1
    38    21    22    1
    39    21    23   ar
    40    23    24    1
    41    24    39    1
    42    24    40    1
    43    24    41    1
    44    25    42    1
    45    25    43    1
@<TRIPOS>SUBSTRUCTURE
     1 ZINC000885154703        1 TEMP              0 ****  ****    0 ROOT


##########                                Name:    ZINC000123469372
##########                DOCK_Rotatable_Bonds:                   7
##########                         Heavy_Atoms:                  25
##########                    Molecular_Weight:             341.382
##########                DOCK_Rotatable_Bonds:                   7
##########                       Formal_Charge:          -0.0300001
##########                     HBond_Acceptors:                   5
##########                        HBond_Donors:                   2
##########                         Heavy_Atoms:                  25
##########                          Grid_Score:          -26.875736
##########                     Grid_vdw_energy:          -25.857182
##########                      Grid_es_energy:           -1.018555
##########           Internal_energy_repulsive:           11.295343

@<TRIPOS>MOLECULE
ZINC000123469372
 45 47 1 0 0
SMALL
USER_CHARGES


@<TRIPOS>ATOM
      1 C1        -10.1142    2.6755   51.7717 C.3     1  ZINC000123469372   -0.1700
      2 C2         -9.1524    1.5753   52.2250 C.3     1  ZINC000123469372    0.1500
      3 H3         -9.0880    0.8083   51.4532 H       1  ZINC000123469372    0.0900
      4 C4         -7.7659    2.1764   52.4635 C.3     1  ZINC000123469372   -0.1600
      5 C5         -6.7934    1.6510   51.4057 C.3     1  ZINC000123469372    0.1500
      6 H6         -7.1857    1.8673   50.4121 H       1  ZINC000123469372    0.1100
      7 O7         -6.6392    0.2387   51.5599 O.3     1  ZINC000123469372   -0.5500
      8 C8         -5.4555    2.3237   51.5749 C.ar    1  ZINC000123469372   -0.1200
      9 C9         -4.6763    2.6011   50.4673 C.ar    1  ZINC000123469372   -0.1100
     10 C10        -3.4491    3.2182   50.6226 C.ar    1  ZINC000123469372   -0.1200
     11 C11        -3.0012    3.5581   51.8854 C.ar    1  ZINC000123469372   -0.1200
     12 C12        -3.7808    3.2816   52.9929 C.ar    1  ZINC000123469372   -0.1200
     13 C13        -5.0099    2.6683   52.8374 C.ar    1  ZINC000123469372   -0.1100
     14 N14        -9.6457    0.9771   53.4680 N.am    1  ZINC000123469372   -0.7100
     15 C15       -10.3265   -0.1856   53.4325 C.2     1  ZINC000123469372    0.5700
     16 O16       -10.5326   -0.7379   52.3676 O.2     1  ZINC000123469372   -0.5400
     17 C17       -10.8174   -0.7837   54.6735 C.2     1  ZINC000123469372   -0.2200
     18 C18       -10.3099   -0.3888   55.8671 C.2     1  ZINC000123469372    0.0000
     19 C19       -10.8257   -1.0378   57.0825 C.ar    1  ZINC000123469372   -0.1200
     20 C20       -10.6202   -0.4851   58.3458 C.ar    1  ZINC000123469372   -0.0900
     21 C21       -11.1224   -1.1296   59.4602 C.ar    1  ZINC000123469372    0.0700
     22 F22       -10.9278   -0.6003   60.6879 F       1  ZINC000123469372   -0.1400
     23 C23       -11.8258   -2.3174   59.3241 C.ar    1  ZINC000123469372   -0.1100
     24 C24       -12.0341   -2.8731   58.0750 C.ar    1  ZINC000123469372   -0.1200
     25 C25       -11.5390   -2.2418   56.9486 C.ar    1  ZINC000123469372    0.1300
     26 O26       -11.7262   -2.7619   55.7101 O.3     1  ZINC000123469372   -0.3000
     27 C27       -11.8938   -1.8370   54.6315 C.3     1  ZINC000123469372    0.1100
     28 H28        -9.7471    3.1206   50.8469 H       1  ZINC000123469372    0.0700
     29 H29       -11.1020    2.2472   51.6018 H       1  ZINC000123469372    0.0600
     30 H30       -10.1786    3.4425   52.5435 H       1  ZINC000123469372    0.0600
     31 H31        -7.8242    3.2627   52.3959 H       1  ZINC000123469372    0.0900
     32 H32        -7.4124    1.8926   53.4549 H       1  ZINC000123469372    0.0800
     33 H33        -6.2825   -0.0266   52.4186 H       1  ZINC000123469372    0.3700
     34 H34        -5.0262    2.3354   49.4808 H       1  ZINC000123469372    0.1200
     35 H35        -2.8400    3.4342   49.7572 H       1  ZINC000123469372    0.1200
     36 H36        -2.0421    4.0395   52.0067 H       1  ZINC000123469372    0.1200
     37 H37        -3.4307    3.5469   53.9796 H       1  ZINC000123469372    0.1200
     38 H38        -5.6190    2.4523   53.7026 H       1  ZINC000123469372    0.1200
     39 H39        -9.4826    1.4178   54.3165 H       1  ZINC000123469372    0.4000
     40 H40        -9.5511    0.3776   55.9239 H       1  ZINC000123469372    0.1500
     41 H41       -10.0725    0.4395   58.4527 H       1  ZINC000123469372    0.1500
     42 H42       -12.2140   -2.8130   60.2016 H       1  ZINC000123469372    0.1500
     43 H43       -12.5824   -3.7986   57.9793 H       1  ZINC000123469372    0.1500
     44 H44       -12.8727   -1.3644   54.7107 H       1  ZINC000123469372    0.0800
     45 H45       -11.8314   -2.3729   53.6843 H       1  ZINC000123469372    0.1100
@<TRIPOS>BOND
     1     1     2    1
     2     1    28    1
     3     1    29    1
     4     1    30    1
     5     2     3    1
     6     2     4    1
     7     2    14    1
     8     4     5    1
     9     4    31    1
    10     4    32    1
    11     5     6    1
    12     5     7    1
    13     5     8    1
    14     7    33    1
    15     8    13   ar
    16     8     9   ar
    17     9    10   ar
    18     9    34    1
    19    10    11   ar
    20    10    35    1
    21    11    12   ar
    22    11    36    1
    23    12    13   ar
    24    12    37    1
    25    13    38    1
    26    14    15   am
    27    14    39    1
    28    15    16    2
    29    15    17    1
    30    17    27    1
    31    17    18    2
    32    18    19    1
    33    18    40    1
    34    19    25   ar
    35    19    20   ar
    36    20    21   ar
    37    20    41    1
    38    21    22    1
    39    21    23   ar
    40    23    24   ar
    41    23    42    1
    42    24    25   ar
    43    24    43    1
    44    25    26    1
    45    26    27    1
    46    27    44    1
    47    27    45    1
@<TRIPOS>SUBSTRUCTURE
     1 ZINC000123469372        1 TEMP              0 ****  ****    0 ROOT


##########                                Name:    ZINC000944933040
##########                DOCK_Rotatable_Bonds:                   4
##########                         Heavy_Atoms:                  26
##########                    Molecular_Weight:             354.449
##########                DOCK_Rotatable_Bonds:                   4
##########                       Formal_Charge:           0.0100002
##########                     HBond_Acceptors:                   5
##########                        HBond_Donors:                   0
##########                         Heavy_Atoms:                  26
##########                          Grid_Score:          -26.873781
##########                     Grid_vdw_energy:          -26.154537
##########                      Grid_es_energy:           -0.719245
##########           Internal_energy_repulsive:           10.546637

@<TRIPOS>MOLECULE
ZINC000944933040
 52 57 1 0 0
SMALL
USER_CHARGES


@<TRIPOS>ATOM
      1 O1        -14.5344    0.6216   56.4357 O.2     1  ZINC000944933040   -0.5200
      2 C2        -13.3521    0.3846   56.5939 C.2     1  ZINC000944933040    0.6400
      3 C3        -12.8979   -0.2095   57.8152 C.1     1  ZINC000944933040   -0.2200
      4 C4        -12.5257   -0.6965   58.8164 C.1     1  ZINC000944933040   -0.0400
      5 C5        -12.0589   -1.3072   60.0717 C.3     1  ZINC000944933040   -0.0700
      6 C6        -11.7232   -2.7998   60.0491 C.3     1  ZINC000944933040   -0.1600
      7 C7        -10.6001   -1.7643   60.1353 C.3     1  ZINC000944933040   -0.1600
      8 N8        -12.4699    0.6762   55.6175 N.am    1  ZINC000944933040   -0.6000
      9 C9        -12.9233    1.2915   54.3632 C.3     1  ZINC000944933040    0.1100
     10 C10       -12.4668    0.4150   53.1908 C.3     1  ZINC000944933040   -0.1200
     11 C11       -10.9662    0.1610   53.3111 C.3     1  ZINC000944933040   -0.0900
     12 C12       -10.3566   -0.5187   52.0773 C.3     1  ZINC000944933040    0.1200
     13 N13        -9.2354    0.4288   52.2378 N.am    1  ZINC000944933040   -0.6400
     14 C14        -7.9374    0.4255   51.8750 C.2     1  ZINC000944933040    0.5500
     15 O15        -7.4784   -0.5221   51.2730 O.2     1  ZINC000944933040   -0.5300
     16 C16        -7.0563    1.5992   52.2172 C.3     1  ZINC000944933040   -0.1300
     17 H17        -6.8809    1.6481   53.2919 H       1  ZINC000944933040    0.1100
     18 C18        -7.6788    2.9218   51.7018 C.3     1  ZINC000944933040   -0.1300
     19 C19        -6.6093    3.4359   50.6919 C.3     1  ZINC000944933040    0.0900
     20 H20        -6.9740    4.1372   49.9414 H       1  ZINC000944933040    0.1300
     21 O21        -6.0747    2.1734   50.1746 O.3     1  ZINC000944933040   -0.3600
     22 C22        -5.7076    1.5220   51.4407 C.3     1  ZINC000944933040    0.1200
     23 H23        -5.2627    0.5310   51.3504 H       1  ZINC000944933040    0.1400
     24 C24        -4.7958    2.6074   52.0876 C.3     1  ZINC000944933040   -0.2000
     25 H25        -4.4740    2.4618   53.1187 H       1  ZINC000944933040    0.1200
     26 C26        -3.9763    3.4877   51.1419 C.3     1  ZINC000944933040   -0.1300
     27 C27        -5.4283    3.9501   51.5687 C.3     1  ZINC000944933040   -0.2000
     28 H28        -5.5616    4.8347   52.1916 H       1  ZINC000944933040    0.1300
     29 C29       -10.1064    1.3818   52.9544 C.3     1  ZINC000944933040    0.1100
     30 C30       -10.5719   -0.4989   54.6302 C.3     1  ZINC000944933040   -0.1100
     31 C31       -11.0404    0.3888   55.7953 C.3     1  ZINC000944933040    0.1100
     32 H32       -12.5002   -0.9041   60.9831 H       1  ZINC000944933040    0.1400
     33 H33       -11.9437   -3.3789   60.9459 H       1  ZINC000944933040    0.1100
     34 H34       -11.8479   -3.3294   59.1047 H       1  ZINC000944933040    0.1000
     35 H35        -9.9860   -1.6127   59.2476 H       1  ZINC000944933040    0.1000
     36 H36       -10.0818   -1.6621   61.0887 H       1  ZINC000944933040    0.1100
     37 H37       -14.0109    1.3634   54.3638 H       1  ZINC000944933040    0.0900
     38 H38       -12.4891    2.2865   54.2664 H       1  ZINC000944933040    0.0800
     39 H39       -13.0004   -0.5352   53.2167 H       1  ZINC000944933040    0.0800
     40 H40       -12.6757    0.9258   52.2509 H       1  ZINC000944933040    0.0900
     41 H41       -10.0792   -1.5599   52.2411 H       1  ZINC000944933040    0.0800
     42 H42       -10.9317   -0.3686   51.1636 H       1  ZINC000944933040    0.0900
     43 H43        -8.6263    2.7320   51.1974 H       1  ZINC000944933040    0.0800
     44 H44        -7.8105    3.6309   52.5191 H       1  ZINC000944933040    0.0900
     45 H45        -3.1409    4.0421   51.5700 H       1  ZINC000944933040    0.1000
     46 H46        -3.8270    3.1276   50.1240 H       1  ZINC000944933040    0.1000
     47 H47       -10.6072    2.0965   52.3013 H       1  ZINC000944933040    0.0900
     48 H48        -9.6304    1.8509   53.8153 H       1  ZINC000944933040    0.0800
     49 H49       -11.0440   -1.4786   54.7029 H       1  ZINC000944933040    0.0800
     50 H50        -9.4886   -0.6111   54.6720 H       1  ZINC000944933040    0.0800
     51 H51       -10.4726    1.3193   55.7970 H       1  ZINC000944933040    0.0700
     52 H52       -10.8887   -0.1361   56.7385 H       1  ZINC000944933040    0.1000
@<TRIPOS>BOND
     1     1     2    2
     2     2     3    1
     3     2     8   am
     4     3     4    3
     5     4     5    1
     6     5     7    1
     7     5     6    1
     8     5    32    1
     9     6     7    1
    10     6    33    1
    11     6    34    1
    12     7    35    1
    13     7    36    1
    14     8    31    1
    15     8     9    1
    16     9    10    1
    17     9    37    1
    18     9    38    1
    19    10    11    1
    20    10    39    1
    21    10    40    1
    22    11    29    1
    23    11    12    1
    24    11    30    1
    25    12    13    1
    26    12    41    1
    27    12    42    1
    28    13    14   am
    29    13    29    1
    30    14    15    2
    31    14    16    1
    32    16    17    1
    33    16    22    1
    34    16    18    1
    35    18    19    1
    36    18    43    1
    37    18    44    1
    38    19    20    1
    39    19    27    1
    40    19    21    1
    41    21    22    1
    42    22    23    1
    43    22    24    1
    44    24    25    1
    45    24    27    1
    46    24    26    1
    47    26    27    1
    48    26    45    1
    49    26    46    1
    50    27    28    1
    51    29    47    1
    52    29    48    1
    53    30    31    1
    54    30    49    1
    55    30    50    1
    56    31    51    1
    57    31    52    1
@<TRIPOS>SUBSTRUCTURE
     1 ZINC000944933040        1 TEMP              0 ****  ****    0 ROOT


##########                                Name:    ZINC000774689801
##########                DOCK_Rotatable_Bonds:                   4
##########                         Heavy_Atoms:                  24
##########                    Molecular_Weight:             347.395
##########                DOCK_Rotatable_Bonds:                   4
##########                       Formal_Charge:         -0.00999961
##########                     HBond_Acceptors:                   8
##########                        HBond_Donors:                   1
##########                         Heavy_Atoms:                  24
##########                          Grid_Score:          -26.838078
##########                     Grid_vdw_energy:          -26.262442
##########                      Grid_es_energy:           -0.575636
##########           Internal_energy_repulsive:            5.746392

@<TRIPOS>MOLECULE
ZINC000774689801
 41 44 1 0 0
SMALL
USER_CHARGES


@<TRIPOS>ATOM
      1 C1        -10.0814    0.8018   55.1156 C.3     1  ZINC000774689801   -0.1200
      2 C2         -8.8468    1.5469   55.5537 C.2     1  ZINC000774689801    0.0600
      3 C3         -8.6745    1.9676   56.8171 C.2     1  ZINC000774689801   -0.2800
      4 C4         -9.6351    1.7633   57.9034 C.2     1  ZINC000774689801    0.5500
      5 O5        -10.1755    2.7198   58.4252 O.2     1  ZINC000774689801   -0.4900
      6 O6         -9.9207    0.5141   58.3252 O.3     1  ZINC000774689801   -0.3400
      7 C7        -10.2963    0.3589   59.7192 C.3     1  ZINC000774689801    0.0900
      8 C8         -9.0880    0.6572   60.6091 C.3     1  ZINC000774689801   -0.1300
      9 H9         -8.6256    1.6008   60.3193 H       1  ZINC000774689801    0.1200
     10 C10        -9.5077    0.6947   62.0968 C.3     1  ZINC000774689801   -0.1300
     11 C11        -8.2786    0.0625   62.7869 C.3     1  ZINC000774689801    0.1000
     12 N12        -7.6520   -0.7881   61.7682 N.am    1  ZINC000774689801   -0.7400
     13 C13        -8.0826   -0.4706   60.5324 C.2     1  ZINC000774689801    0.5200
     14 O14        -7.7199   -1.0126   59.5099 O.2     1  ZINC000774689801   -0.5100
     15 S15        -7.1361    2.7963   56.9847 S.3     1  ZINC000774689801    0.3000
     16 C16        -6.7587    2.5416   55.2850 C.2     1  ZINC000774689801    0.1000
     17 C17        -7.8048    1.8406   54.6762 C.2     1  ZINC000774689801   -0.2500
     18 C18        -7.6573    1.5365   53.2401 C.2     1  ZINC000774689801    0.5700
     19 O19        -8.5270    0.9302   52.6403 O.2     1  ZINC000774689801   -0.5000
     20 N20        -6.5352    1.9458   52.6030 N.am    1  ZINC000774689801   -0.5500
     21 C21        -6.1566    1.7613   51.1914 C.3     1  ZINC000774689801    0.0900
     22 C22        -5.0335    2.7850   50.9260 C.3     1  ZINC000774689801   -0.1300
     23 C23        -4.4329    2.9677   52.3365 C.3     1  ZINC000774689801   -0.0800
     24 C24        -5.5739    2.6239   53.2796 C.2     1  ZINC000774689801    0.4200
     25 N25        -5.6886    2.8955   54.5525 N.2     1  ZINC000774689801   -0.5100
     26 H26        -9.9262   -0.2688   55.2494 H       1  ZINC000774689801    0.0800
     27 H27       -10.9322    1.1234   55.7162 H       1  ZINC000774689801    0.1000
     28 H28       -10.2785    1.0117   54.0643 H       1  ZINC000774689801    0.0800
     29 H29       -11.1030    1.0520   59.9575 H       1  ZINC000774689801    0.0900
     30 H30       -10.6322   -0.6634   59.8933 H       1  ZINC000774689801    0.0800
     31 H31        -9.6595    1.7202   62.4336 H       1  ZINC000774689801    0.1000
     32 H32       -10.4015    0.0940   62.2653 H       1  ZINC000774689801    0.0900
     33 H33        -7.5850    0.8397   63.1080 H       1  ZINC000774689801    0.0800
     34 H34        -8.5928   -0.5394   63.6395 H       1  ZINC000774689801    0.0800
     35 H35        -7.0087   -1.4883   61.9601 H       1  ZINC000774689801    0.4100
     36 H36        -5.7888    0.7481   51.0294 H       1  ZINC000774689801    0.1000
     37 H37        -7.0097    1.9615   50.5432 H       1  ZINC000774689801    0.1000
     38 H38        -4.2926    2.3809   50.2361 H       1  ZINC000774689801    0.1100
     39 H39        -5.4420    3.7236   50.5515 H       1  ZINC000774689801    0.0900
     40 H40        -3.5965    2.2850   52.4858 H       1  ZINC000774689801    0.1200
     41 H41        -4.1145    3.9997   52.4842 H       1  ZINC000774689801    0.1200
@<TRIPOS>BOND
     1     1     2    1
     2     1    26    1
     3     1    27    1
     4     1    28    1
     5     2    17    1
     6     2     3    2
     7     3     4    1
     8     3    15    1
     9     4     5    2
    10     4     6    1
    11     6     7    1
    12     7     8    1
    13     7    29    1
    14     7    30    1
    15     8     9    1
    16     8    13    1
    17     8    10    1
    18    10    11    1
    19    10    31    1
    20    10    32    1
    21    11    12    1
    22    11    33    1
    23    11    34    1
    24    12    13   am
    25    12    35    1
    26    13    14    2
    27    15    16    1
    28    16    25    1
    29    16    17    2
    30    17    18    1
    31    18    19    2
    32    18    20   am
    33    20    24    1
    34    20    21    1
    35    21    22    1
    36    21    36    1
    37    21    37    1
    38    22    23    1
    39    22    38    1
    40    22    39    1
    41    23    24    1
    42    23    40    1
    43    23    41    1
    44    24    25    2
@<TRIPOS>SUBSTRUCTURE
     1 ZINC000774689801        1 TEMP              0 ****  ****    0 ROOT


##########                                Name:    ZINC001079355651
##########                DOCK_Rotatable_Bonds:                   5
##########                         Heavy_Atoms:                  25
##########                    Molecular_Weight:             353.851
##########                DOCK_Rotatable_Bonds:                   5
##########                       Formal_Charge:           0.0199997
##########                     HBond_Acceptors:                   5
##########                        HBond_Donors:                   1
##########                         Heavy_Atoms:                  25
##########                          Grid_Score:          -26.835276
##########                     Grid_vdw_energy:          -24.666780
##########                      Grid_es_energy:           -2.168495
##########           Internal_energy_repulsive:            5.240410

@<TRIPOS>MOLECULE
ZINC001079355651
 45 47 1 0 0
SMALL
USER_CHARGES


@<TRIPOS>ATOM
      1 C1         -1.7776    3.7968   54.1133 C.3     1  ZINC001079355651   -0.1500
      2 C2         -2.4800    3.1331   55.2996 C.3     1  ZINC001079355651   -0.1000
      3 H3         -2.1233    2.1110   55.4264 H       1  ZINC001079355651    0.0900
      4 C4         -4.0098    3.1453   55.0922 C.3     1  ZINC001079355651    0.0300
      5 N5         -4.5693    3.3858   56.4472 N.3     1  ZINC001079355651   -0.5100
      6 C6         -5.9386    3.9112   56.3657 C.3     1  ZINC001079355651    0.1600
      7 C7         -6.7909    2.9503   55.6466 C.1     1  ZINC001079355651   -0.1400
      8 C8         -7.4706    2.1839   55.0732 C.1     1  ZINC001079355651   -0.1300
      9 C9         -8.2998    1.2491   54.3738 C.ar    1  ZINC001079355651    0.0300
     10 C10        -7.9638    0.8454   53.0811 C.ar    1  ZINC001079355651   -0.0900
     11 C11        -8.7667   -0.0557   52.4118 C.ar    1  ZINC001079355651   -0.1000
     12 C12        -9.9026   -0.5590   53.0193 C.ar    1  ZINC001079355651   -0.1000
     13 C13       -10.2423   -0.1624   54.3019 C.ar    1  ZINC001079355651   -0.0300
     14 Cl14      -11.6704   -0.7992   55.0560 Cl      1  ZINC001079355651   -0.0600
     15 C15        -9.4439    0.7339   54.9843 C.ar    1  ZINC001079355651   -0.0900
     16 C16        -3.6503    4.3856   57.0494 C.3     1  ZINC001079355651    0.0200
     17 C17        -2.2413    3.9475   56.5877 C.3     1  ZINC001079355651    0.1500
     18 H18        -1.6243    4.8205   56.3746 H       1  ZINC001079355651    0.1000
     19 N19        -1.6062    3.1145   57.6119 N.am    1  ZINC001079355651   -0.7100
     20 C20        -1.1871    3.6688   58.7668 C.2     1  ZINC001079355651    0.5600
     21 O21        -1.3373    4.8592   58.9590 O.2     1  ZINC001079355651   -0.5300
     22 C22        -0.5433    2.8267   59.8018 C.ar    1  ZINC001079355651   -0.0900
     23 C23        -0.1874    3.3612   61.0437 C.ar    1  ZINC001079355651   -0.1400
     24 C24         0.4109    2.5399   61.9797 C.ar    1  ZINC001079355651    0.1000
     25 N25         0.6464    1.2704   61.7143 N.ar    1  ZINC001079355651   -0.4700
     26 C26         0.3269    0.7269   60.5566 C.ar    1  ZINC001079355651    0.1000
     27 C27        -0.2801    1.4740   59.5657 C.ar    1  ZINC001079355651   -0.1200
     28 H28        -0.7035    3.8257   54.2969 H       1  ZINC001079355651    0.0600
     29 H29        -1.9761    3.2247   53.2071 H       1  ZINC001079355651    0.0700
     30 H30        -2.1528    4.8129   53.9911 H       1  ZINC001079355651    0.0600
     31 H31        -4.2951    3.9502   54.4148 H       1  ZINC001079355651    0.0600
     32 H32        -4.3487    2.1841   54.7060 H       1  ZINC001079355651    0.0900
     33 H33        -6.3302    4.0624   57.3717 H       1  ZINC001079355651    0.0700
     34 H34        -5.9320    4.8615   55.8318 H       1  ZINC001079355651    0.1100
     35 H35        -7.0774    1.2378   52.6050 H       1  ZINC001079355651    0.1300
     36 H36        -8.5075   -0.3683   51.4110 H       1  ZINC001079355651    0.1400
     37 H37       -10.5275   -1.2639   52.4911 H       1  ZINC001079355651    0.1400
     38 H38        -9.7093    1.0427   55.9845 H       1  ZINC001079355651    0.1400
     39 H39        -3.8794    5.3846   56.6784 H       1  ZINC001079355651    0.0600
     40 H40        -3.7186    4.3581   58.1370 H       1  ZINC001079355651    0.0900
     41 H41        -1.4874    2.1640   57.4590 H       1  ZINC001079355651    0.4000
     42 H42        -0.3770    4.4005   61.2679 H       1  ZINC001079355651    0.1400
     43 H43         0.6898    2.9435   62.9418 H       1  ZINC001079355651    0.1600
     44 H44         0.5387   -0.3176   60.3821 H       1  ZINC001079355651    0.1700
     45 H45        -0.5391    1.0221   58.6196 H       1  ZINC001079355651    0.1500
@<TRIPOS>BOND
     1     1     2    1
     2     1    28    1
     3     1    29    1
     4     1    30    1
     5     2     3    1
     6     2    17    1
     7     2     4    1
     8     4     5    1
     9     4    31    1
    10     4    32    1
    11     5     6    1
    12     5    16    1
    13     6     7    1
    14     6    33    1
    15     6    34    1
    16     7     8    3
    17     8     9    1
    18     9    15   ar
    19     9    10   ar
    20    10    11   ar
    21    10    35    1
    22    11    12   ar
    23    11    36    1
    24    12    13   ar
    25    12    37    1
    26    13    14    1
    27    13    15   ar
    28    15    38    1
    29    16    17    1
    30    16    39    1
    31    16    40    1
    32    17    18    1
    33    17    19    1
    34    19    20   am
    35    19    41    1
    36    20    21    2
    37    20    22    1
    38    22    27   ar
    39    22    23   ar
    40    23    24   ar
    41    23    42    1
    42    24    25   ar
    43    24    43    1
    44    25    26   ar
    45    26    27   ar
    46    26    44    1
    47    27    45    1
@<TRIPOS>SUBSTRUCTURE
     1 ZINC001079355651        1 TEMP              0 ****  ****    0 ROOT


##########                                Name:    ZINC001436455587
##########                DOCK_Rotatable_Bonds:                   9
##########                         Heavy_Atoms:                  21
##########                    Molecular_Weight:             378.693
##########                DOCK_Rotatable_Bonds:                   9
##########                       Formal_Charge:          -0.0200001
##########                     HBond_Acceptors:                   5
##########                        HBond_Donors:                   1
##########                         Heavy_Atoms:                  21
##########                          Grid_Score:          -26.829985
##########                     Grid_vdw_energy:          -26.064909
##########                      Grid_es_energy:           -0.765076
##########           Internal_energy_repulsive:           12.166410

@<TRIPOS>MOLECULE
ZINC001436455587
 42 42 1 0 0
SMALL
USER_CHARGES


@<TRIPOS>ATOM
      1 C1        -14.8487   -1.3858   47.0939 C.3     1  ZINC001436455587   -0.1500
      2 C2        -15.4169   -0.4690   48.1789 C.3     1  ZINC001436455587   -0.1300
      3 C3        -14.8292    0.9347   48.0199 C.3     1  ZINC001436455587   -0.1400
      4 C4        -13.3977    0.9524   48.5596 C.3     1  ZINC001436455587    0.0800
      5 H5        -12.8704    0.0607   48.2202 H       1  ZINC001436455587    0.0700
      6 C6        -13.4295    0.9747   50.0891 C.3     1  ZINC001436455587    0.1200
      7 N7        -12.1570    0.4707   50.6115 N.am    1  ZINC001436455587   -0.7200
      8 C8        -11.7184    0.8729   51.8208 C.2     1  ZINC001436455587    0.5200
      9 O9        -12.3778    1.6509   52.4771 O.2     1  ZINC001436455587   -0.5100
     10 C10       -10.4085    0.3558   52.3574 C.3     1  ZINC001436455587    0.0600
     11 H11        -9.8332   -0.0886   51.5452 H       1  ZINC001436455587    0.1000
     12 C12       -10.6785   -0.7020   53.4293 C.3     1  ZINC001436455587   -0.1800
     13 O13        -9.6685    1.4360   52.9298 O.3     1  ZINC001436455587   -0.2700
     14 C14        -8.4398    1.6884   52.4058 C.ar    1  ZINC001436455587    0.1600
     15 C15        -7.5702    0.6416   52.1397 C.ar    1  ZINC001436455587   -0.2000
     16 C16        -6.3217    0.9000   51.6067 C.ar    1  ZINC001436455587   -0.0500
     17 C17        -5.9386    2.2020   51.3388 C.ar    1  ZINC001436455587   -0.0700
     18 Cl18       -4.3692    2.5236   50.6698 Cl      1  ZINC001436455587   -0.0600
     19 C19        -6.8046    3.2485   51.6032 C.ar    1  ZINC001436455587   -0.0400
     20 C20        -8.0561    2.9940   52.1313 C.ar    1  ZINC001436455587   -0.1200
     21 Br21       -9.2395    4.4240   52.4925 Br      1  ZINC001436455587   -0.0100
     22 O22       -12.7221    2.1167   48.0802 O.3     1  ZINC001436455587   -0.3800
     23 C23       -12.3053    2.0266   46.7162 C.3     1  ZINC001436455587    0.0200
     24 H24       -15.1099   -0.9916   46.1117 H       1  ZINC001436455587    0.0500
     25 H25       -13.7639   -1.4331   47.1895 H       1  ZINC001436455587    0.0600
     26 H26       -15.2674   -2.3858   47.2071 H       1  ZINC001436455587    0.0600
     27 H27       -16.5017   -0.4216   48.0832 H       1  ZINC001436455587    0.0600
     28 H28       -15.1556   -0.8631   49.1610 H       1  ZINC001436455587    0.0700
     29 H29       -14.8230    1.2086   46.9649 H       1  ZINC001436455587    0.0800
     30 H30       -15.4364    1.6480   48.5769 H       1  ZINC001436455587    0.0800
     31 H31       -13.5846    1.9970   50.4344 H       1  ZINC001436455587    0.0800
     32 H32       -14.2439    0.3436   50.4449 H       1  ZINC001436455587    0.0800
     33 H33       -11.6302   -0.1524   50.0871 H       1  ZINC001436455587    0.4000
     34 H34        -9.7310   -1.0760   53.8175 H       1  ZINC001436455587    0.0800
     35 H35       -11.2538   -0.2576   54.2416 H       1  ZINC001436455587    0.0800
     36 H36       -11.2429   -1.5260   52.9927 H       1  ZINC001436455587    0.0800
     37 H37        -7.8684   -0.3750   52.3491 H       1  ZINC001436455587    0.1500
     38 H38        -5.6444    0.0848   51.3993 H       1  ZINC001436455587    0.1400
     39 H39        -6.5038    4.2642   51.3932 H       1  ZINC001436455587    0.1500
     40 H40       -13.1821    1.9640   46.0718 H       1  ZINC001436455587    0.0500
     41 H41       -11.7245    2.9111   46.4546 H       1  ZINC001436455587    0.0900
     42 H42       -11.6914    1.1360   46.5821 H       1  ZINC001436455587    0.0400
@<TRIPOS>BOND
     1     1     2    1
     2     1    24    1
     3     1    25    1
     4     1    26    1
     5     2     3    1
     6     2    27    1
     7     2    28    1
     8     3     4    1
     9     3    29    1
    10     3    30    1
    11     4     5    1
    12     4     6    1
    13     4    22    1
    14     6     7    1
    15     6    31    1
    16     6    32    1
    17     7     8   am
    18     7    33    1
    19     8     9    2
    20     8    10    1
    21    10    11    1
    22    10    12    1
    23    10    13    1
    24    12    34    1
    25    12    35    1
    26    12    36    1
    27    13    14    1
    28    14    20   ar
    29    14    15   ar
    30    15    16   ar
    31    15    37    1
    32    16    17   ar
    33    16    38    1
    34    17    18    1
    35    17    19   ar
    36    19    20   ar
    37    19    39    1
    38    20    21    1
    39    22    23    1
    40    23    40    1
    41    23    41    1
    42    23    42    1
@<TRIPOS>SUBSTRUCTURE
     1 ZINC001436455587        1 TEMP              0 ****  ****    0 ROOT


##########                                Name:    ZINC000279974681
##########                DOCK_Rotatable_Bonds:                   4
##########                         Heavy_Atoms:                  23
##########                    Molecular_Weight:              338.79
##########                DOCK_Rotatable_Bonds:                   4
##########                       Formal_Charge:           0.0100008
##########                     HBond_Acceptors:                   7
##########                        HBond_Donors:                   1
##########                         Heavy_Atoms:                  23
##########                          Grid_Score:          -26.822115
##########                     Grid_vdw_energy:          -26.422190
##########                      Grid_es_energy:           -0.399924
##########           Internal_energy_repulsive:           18.848913

@<TRIPOS>MOLECULE
ZINC000279974681
 42 45 1 0 0
SMALL
USER_CHARGES


@<TRIPOS>ATOM
      1 C1         -1.6515    4.5971   54.0798 C.3     1  ZINC000279974681   -0.1400
      2 C2         -2.3342    4.2112   52.7661 C.3     1  ZINC000279974681    0.0700
      3 H3         -2.9577    5.0371   52.4236 H       1  ZINC000279974681    0.0600
      4 C4         -3.2054    2.9694   52.9873 C.3     1  ZINC000279974681    0.1000
      5 N5         -3.6987    2.5097   51.6794 N.am    1  ZINC000279974681   -0.6300
      6 C6         -5.0086    2.2629   51.4796 C.2     1  ZINC000279974681    0.7100
      7 O7         -5.3968    1.8836   50.3916 O.2     1  ZINC000279974681   -0.5600
      8 N8         -5.8882    2.4365   52.4860 N.am    1  ZINC000279974681   -0.6700
      9 C9         -7.2507    2.1798   52.2781 C.ar    1  ZINC000279974681    0.2000
     10 C10        -7.7652    0.9160   52.5303 C.ar    1  ZINC000279974681   -0.1200
     11 C11        -9.1115    0.6629   52.3252 C.ar    1  ZINC000279974681    0.0700
     12 C12        -9.9469    1.6780   51.8660 C.ar    1  ZINC000279974681    0.0200
     13 C13        -9.4298    2.9388   51.6147 C.ar    1  ZINC000279974681   -0.0700
     14 C14        -8.0871    3.1923   51.8251 C.ar    1  ZINC000279974681   -0.0700
     15 Cl15       -7.4430    4.7731   51.5090 Cl      1  ZINC000279974681   -0.0500
     16 O16       -11.2133    1.1799   51.7467 O.3     1  ZINC000279974681   -0.3000
     17 C17       -11.0645   -0.2522   51.7458 C.3     1  ZINC000279974681    0.2100
     18 O18        -9.8537   -0.4706   52.4937 O.3     1  ZINC000279974681   -0.3000
     19 C19        -2.7199    2.3279   50.5958 C.3     1  ZINC000279974681    0.0800
     20 C20        -1.8724    3.6010   50.4912 C.3     1  ZINC000279974681    0.1100
     21 H21        -2.4942    4.4244   50.1395 H       1  ZINC000279974681    0.0700
     22 C22        -0.7241    3.3710   49.5066 C.3     1  ZINC000279974681   -0.1600
     23 C23        -0.5263    1.9514   48.9711 C.3     1  ZINC000279974681   -0.1700
     24 C24        -1.0908    3.0418   48.0581 C.3     1  ZINC000279974681   -0.1600
     25 O25        -1.3414    3.9213   51.7792 O.3     1  ZINC000279974681   -0.3600
     26 H26        -1.0309    5.4791   53.9215 H       1  ZINC000279974681    0.0700
     27 H27        -2.4091    4.8163   54.8323 H       1  ZINC000279974681    0.0800
     28 H28        -1.0282    3.7708   54.4218 H       1  ZINC000279974681    0.0700
     29 H29        -2.6117    2.1827   53.4527 H       1  ZINC000279974681    0.0800
     30 H30        -4.0489    3.2224   53.6296 H       1  ZINC000279974681    0.1100
     31 H31        -5.5784    2.7391   53.3540 H       1  ZINC000279974681    0.4100
     32 H32        -7.1158    0.1297   52.8860 H       1  ZINC000279974681    0.1800
     33 H33       -10.0777    3.7259   51.2583 H       1  ZINC000279974681    0.1500
     34 H34       -11.9118   -0.7255   52.2417 H       1  ZINC000279974681    0.1400
     35 H35       -10.9581   -0.6255   50.7272 H       1  ZINC000279974681    0.0900
     36 H36        -2.0774    1.4766   50.8205 H       1  ZINC000279974681    0.0900
     37 H37        -3.2420    2.1560   49.6545 H       1  ZINC000279974681    0.0900
     38 H38         0.1678    3.9744   49.6752 H       1  ZINC000279974681    0.1100
     39 H39         0.4959    1.6207   48.7874 H       1  ZINC000279974681    0.1000
     40 H40        -1.2143    1.1814   49.3201 H       1  ZINC000279974681    0.1000
     41 H41        -2.1502    2.9891   47.8067 H       1  ZINC000279974681    0.1000
     42 H42        -0.4400    3.4284   47.2739 H       1  ZINC000279974681    0.1000
@<TRIPOS>BOND
     1     1     2    1
     2     1    26    1
     3     1    27    1
     4     1    28    1
     5     2     3    1
     6     2    25    1
     7     2     4    1
     8     4     5    1
     9     4    29    1
    10     4    30    1
    11     5     6   am
    12     5    19    1
    13     6     7    2
    14     6     8   am
    15     8     9    1
    16     8    31    1
    17     9    14   ar
    18     9    10   ar
    19    10    11   ar
    20    10    32    1
    21    11    18    1
    22    11    12   ar
    23    12    13   ar
    24    12    16    1
    25    13    14   ar
    26    13    33    1
    27    14    15    1
    28    16    17    1
    29    17    18    1
    30    17    34    1
    31    17    35    1
    32    19    20    1
    33    19    36    1
    34    19    37    1
    35    20    21    1
    36    20    22    1
    37    20    25    1
    38    22    24    1
    39    22    23    1
    40    22    38    1
    41    23    24    1
    42    23    39    1
    43    23    40    1
    44    24    41    1
    45    24    42    1
@<TRIPOS>SUBSTRUCTURE
     1 ZINC000279974681        1 TEMP              0 ****  ****    0 ROOT


##########                                Name:    ZINC000329637067
##########                DOCK_Rotatable_Bonds:                   5
##########                         Heavy_Atoms:                  26
##########                    Molecular_Weight:             362.429
##########                DOCK_Rotatable_Bonds:                   5
##########                       Formal_Charge:           0.0199998
##########                     HBond_Acceptors:                   8
##########                        HBond_Donors:                   0
##########                         Heavy_Atoms:                  26
##########                          Grid_Score:          -26.808989
##########                     Grid_vdw_energy:          -25.350163
##########                      Grid_es_energy:           -1.458827
##########           Internal_energy_repulsive:           27.961071

@<TRIPOS>MOLECULE
ZINC000329637067
 52 54 1 0 0
SMALL
USER_CHARGES


@<TRIPOS>ATOM
      1 C1          0.3826    3.7722   52.1580 C.3     1  ZINC000329637067   -0.1300
      2 C2         -0.9039    3.3364   51.5052 C.2     1  ZINC000329637067    0.2200
      3 C3         -2.0435    3.2211   52.2390 C.2     1  ZINC000329637067   -0.2900
      4 C4         -3.2214    2.8146   51.6053 C.2     1  ZINC000329637067    0.2800
      5 C5         -4.4970    2.6797   52.3964 C.3     1  ZINC000329637067   -0.1200
      6 N6         -3.2137    2.5501   50.3146 N.2     1  ZINC000329637067   -0.5500
      7 C7         -2.0920    2.6651   49.5995 C.2     1  ZINC000329637067    0.6400
      8 O8         -2.1116    2.4143   48.4062 O.2     1  ZINC000329637067   -0.5300
      9 N9         -0.9410    3.0594   50.1757 N.am    1  ZINC000329637067   -0.5000
     10 C10         0.2767    3.1785   49.3699 C.3     1  ZINC000329637067    0.0700
     11 C11         0.8742    1.8114   49.1574 C.2     1  ZINC000329637067    0.5100
     12 O12         0.3608    0.8390   49.6692 O.2     1  ZINC000329637067   -0.5200
     13 N13         1.9789    1.6693   48.3986 N.am    1  ZINC000329637067   -0.6100
     14 C14         2.5730    0.3429   48.1823 C.3     1  ZINC000329637067    0.1000
     15 C15         2.7176    0.1072   46.6756 C.3     1  ZINC000329637067   -0.1400
     16 C16         3.5114    1.2599   46.0567 C.3     1  ZINC000329637067   -0.1000
     17 C17         2.7562    2.5738   46.2697 C.3     1  ZINC000329637067   -0.1200
     18 H18         1.7675    2.5028   45.8163 H       1  ZINC000329637067    0.1000
     19 C19         3.5223    3.7036   45.6312 C.2     1  ZINC000329637067    0.5300
     20 O20         4.1661    4.4656   46.3208 O.2     1  ZINC000329637067   -0.5300
     21 N21         3.4919    3.8671   44.2937 N.am    1  ZINC000329637067   -0.6200
     22 C22         2.7128    2.9590   43.4371 C.3     1  ZINC000329637067    0.0800
     23 C23         1.8312    3.8051   42.5114 C.3     1  ZINC000329637067    0.0500
     24 O24         2.6444    4.7701   41.8395 O.3     1  ZINC000329637067   -0.3800
     25 C25         3.2805    5.7080   42.7110 C.3     1  ZINC000329637067    0.0500
     26 C26         4.2317    4.9627   43.6475 C.3     1  ZINC000329637067    0.0700
     27 C27         2.6085    2.8368   47.7669 C.3     1  ZINC000329637067    0.1200
     28 H28         0.7749    4.6472   51.6395 H       1  ZINC000329637067    0.0900
     29 H29         0.1938    4.0227   53.2019 H       1  ZINC000329637067    0.1000
     30 H30         1.1098    2.9620   52.1045 H       1  ZINC000329637067    0.0900
     31 H31        -2.0382    3.4401   53.2966 H       1  ZINC000329637067    0.1600
     32 H32        -5.0340    3.6282   52.3843 H       1  ZINC000329637067    0.1000
     33 H33        -5.1201    1.9038   51.9517 H       1  ZINC000329637067    0.0900
     34 H34        -4.2595    2.4096   53.4254 H       1  ZINC000329637067    0.0900
     35 H35         0.0318    3.6220   48.4048 H       1  ZINC000329637067    0.1200
     36 H36         0.9954    3.8124   49.8893 H       1  ZINC000329637067    0.1300
     37 H37         3.5544    0.3008   48.6546 H       1  ZINC000329637067    0.0800
     38 H38         1.9256   -0.4219   48.6114 H       1  ZINC000329637067    0.0900
     39 H39         3.2445   -0.8313   46.5031 H       1  ZINC000329637067    0.0900
     40 H40         1.7292    0.0592   46.2184 H       1  ZINC000329637067    0.0700
     41 H41         4.4905    1.3227   46.5316 H       1  ZINC000329637067    0.0800
     42 H42         3.6368    1.0822   44.9886 H       1  ZINC000329637067    0.0800
     43 H43         3.3890    2.3463   42.8410 H       1  ZINC000329637067    0.0800
     44 H44         2.0855    2.3180   44.0565 H       1  ZINC000329637067    0.1000
     45 H45         1.3501    3.1595   41.7766 H       1  ZINC000329637067    0.1100
     46 H46         1.0706    4.3171   43.1008 H       1  ZINC000329637067    0.0600
     47 H47         3.8421    6.4313   42.1199 H       1  ZINC000329637067    0.1100
     48 H48         2.5252    6.2269   43.3011 H       1  ZINC000329637067    0.0600
     49 H49         4.6124    5.6476   44.4051 H       1  ZINC000329637067    0.1000
     50 H50         5.0621    4.5498   43.0746 H       1  ZINC000329637067    0.0800
     51 H51         1.9867    3.7183   47.9234 H       1  ZINC000329637067    0.1000
     52 H52         3.5920    2.9978   48.2083 H       1  ZINC000329637067    0.0800
@<TRIPOS>BOND
     1     1     2    1
     2     1    28    1
     3     1    29    1
     4     1    30    1
     5     2     9    1
     6     2     3    2
     7     3     4    1
     8     3    31    1
     9     4     5    1
    10     4     6    2
    11     5    32    1
    12     5    33    1
    13     5    34    1
    14     6     7    1
    15     7     8    2
    16     7     9   am
    17     9    10    1
    18    10    11    1
    19    10    35    1
    20    10    36    1
    21    11    12    2
    22    11    13   am
    23    13    27    1
    24    13    14    1
    25    14    15    1
    26    14    37    1
    27    14    38    1
    28    15    16    1
    29    15    39    1
    30    15    40    1
    31    16    17    1
    32    16    41    1
    33    16    42    1
    34    17    18    1
    35    17    19    1
    36    17    27    1
    37    19    20    2
    38    19    21   am
    39    21    26    1
    40    21    22    1
    41    22    23    1
    42    22    43    1
    43    22    44    1
    44    23    24    1
    45    23    45    1
    46    23    46    1
    47    24    25    1
    48    25    26    1
    49    25    47    1
    50    25    48    1
    51    26    49    1
    52    26    50    1
    53    27    51    1
    54    27    52    1
@<TRIPOS>SUBSTRUCTURE
     1 ZINC000329637067        1 TEMP              0 ****  ****    0 ROOT


##########                                Name:    ZINC000443933644
##########                DOCK_Rotatable_Bonds:                   8
##########                         Heavy_Atoms:                  27
##########                    Molecular_Weight:             402.438
##########                DOCK_Rotatable_Bonds:                   8
##########                       Formal_Charge:          0.00999922
##########                     HBond_Acceptors:                   9
##########                        HBond_Donors:                   2
##########                         Heavy_Atoms:                  27
##########                          Grid_Score:          -26.805492
##########                     Grid_vdw_energy:          -25.288649
##########                      Grid_es_energy:           -1.516844
##########           Internal_energy_repulsive:           29.102585

@<TRIPOS>MOLECULE
ZINC000443933644
 48 49 1 0 0
SMALL
USER_CHARGES


@<TRIPOS>ATOM
      1 C1        -15.8962   -2.0667   55.6595 C.3     1  ZINC000443933644   -0.1500
      2 C2        -14.8541   -2.4313   56.7188 C.3     1  ZINC000443933644   -0.1400
      3 C3        -14.9444   -1.4440   57.8841 C.3     1  ZINC000443933644   -0.1000
      4 H4        -15.9779   -1.3763   58.2236 H       1  ZINC000443933644    0.1000
      5 C5        -14.4677   -0.0654   57.4227 C.3     1  ZINC000443933644   -0.1700
      6 C6        -14.0607   -1.9306   59.0344 C.3     1  ZINC000443933644    0.1200
      7 H7        -13.4757   -1.0962   59.4213 H       1  ZINC000443933644    0.1300
      8 N8        -13.1573   -2.9762   58.5476 N.am    1  ZINC000443933644   -1.1100
      9 S9        -11.5630   -2.9675   58.9955 S.o2    1  ZINC000443933644    2.6900
     10 O10       -11.5455   -2.9114   60.4154 O.2     1  ZINC000443933644   -0.9400
     11 O11       -10.9313   -3.9995   58.2506 O.2     1  ZINC000443933644   -0.9400
     12 C12       -10.8704   -1.4495   58.4290 C.ar    1  ZINC000443933644   -0.7000
     13 C13       -10.8128   -1.1734   57.0526 C.ar    1  ZINC000443933644    0.0500
     14 C14       -11.3008   -2.0899   56.1049 C.ar    1  ZINC000443933644   -0.1400
     15 C15       -11.2297   -1.7903   54.7793 C.ar    1  ZINC000443933644   -0.0800
     16 C16       -10.6792   -0.5861   54.3447 C.ar    1  ZINC000443933644   -0.1200
     17 C17       -10.1965    0.3249   55.2341 C.ar    1  ZINC000443933644   -0.0900
     18 C18       -10.2534    0.0506   56.6097 C.ar    1  ZINC000443933644   -0.0900
     19 C19        -9.7632    0.9705   57.5607 C.ar    1  ZINC000443933644    0.2300
     20 N20        -9.2074    2.1825   57.1468 N.am    1  ZINC000443933644   -0.6700
     21 C21        -7.8874    2.4063   57.3013 C.2     1  ZINC000443933644    0.5100
     22 C22        -7.2876    3.7146   56.8545 C.3     1  ZINC000443933644   -0.1700
     23 O23        -7.1823    1.5547   57.8000 O.2     1  ZINC000443933644   -0.5100
     24 C24        -9.8382    0.6619   58.9018 C.ar    1  ZINC000443933644   -0.1600
     25 C25       -10.3957   -0.5408   59.3251 C.ar    1  ZINC000443933644    0.0400
     26 C26       -14.9416   -2.4967   60.1500 C.3     1  ZINC000443933644    0.4300
     27 F27       -15.6697   -3.5869   59.6616 F       1  ZINC000443933644   -0.1700
     28 F28       -14.1353   -2.9136   61.2146 F       1  ZINC000443933644   -0.1600
     29 F29       -15.8251   -1.5070   60.5940 F       1  ZINC000443933644   -0.1700
     30 H30       -16.8926   -2.1134   56.0989 H       1  ZINC000443933644    0.0500
     31 H31       -15.7065   -1.0568   55.2958 H       1  ZINC000443933644    0.0600
     32 H32       -15.8318   -2.7700   54.8292 H       1  ZINC000443933644    0.0600
     33 H33       -15.0438   -3.4411   57.0825 H       1  ZINC000443933644    0.0700
     34 H34       -13.8577   -2.3846   56.2794 H       1  ZINC000443933644    0.0900
     35 H35       -15.1651    0.3322   56.6853 H       1  ZINC000443933644    0.0700
     36 H36       -14.4207    0.6081   58.2785 H       1  ZINC000443933644    0.0600
     37 H37       -13.4777   -0.1542   56.9755 H       1  ZINC000443933644    0.0700
     38 H38       -13.4929   -3.6736   57.9628 H       1  ZINC000443933644    0.4300
     39 H39       -11.7297   -3.0273   56.4272 H       1  ZINC000443933644    0.1400
     40 H40       -11.6050   -2.4963   54.0533 H       1  ZINC000443933644    0.1300
     41 H41       -10.6345   -0.3724   53.2870 H       1  ZINC000443933644    0.1300
     42 H42        -9.7720    1.2537   54.8831 H       1  ZINC000443933644    0.1300
     43 H43        -9.7715    2.8636   56.7481 H       1  ZINC000443933644    0.4200
     44 H44        -8.0690    4.3481   56.4349 H       1  ZINC000443933644    0.0800
     45 H45        -6.8328    4.2162   57.7087 H       1  ZINC000443933644    0.1000
     46 H46        -6.5271    3.5256   56.0969 H       1  ZINC000443933644    0.1000
     47 H47        -9.4640    1.3635   59.6327 H       1  ZINC000443933644    0.1500
     48 H48       -10.4439   -0.7613   60.3813 H       1  ZINC000443933644    0.1500
@<TRIPOS>BOND
     1     1     2    1
     2     1    30    1
     3     1    31    1
     4     1    32    1
     5     2     3    1
     6     2    33    1
     7     2    34    1
     8     3     4    1
     9     3     5    1
    10     3     6    1
    11     5    35    1
    12     5    36    1
    13     5    37    1
    14     6     7    1
    15     6     8    1
    16     6    26    1
    17     8     9   am
    18     8    38    1
    19     9    10    2
    20     9    11    2
    21     9    12    1
    22    12    25   ar
    23    12    13   ar
    24    13    18   ar
    25    13    14   ar
    26    14    15   ar
    27    14    39    1
    28    15    16   ar
    29    15    40    1
    30    16    17   ar
    31    16    41    1
    32    17    18   ar
    33    17    42    1
    34    18    19   ar
    35    19    20    1
    36    19    24   ar
    37    20    21   am
    38    20    43    1
    39    21    22    1
    40    21    23    2
    41    22    44    1
    42    22    45    1
    43    22    46    1
    44    24    25   ar
    45    24    47    1
    46    25    48    1
    47    26    27    1
    48    26    28    1
    49    26    29    1
@<TRIPOS>SUBSTRUCTURE
     1 ZINC000443933644        1 TEMP              0 ****  ****    0 ROOT


##########                                Name:    ZINC000846412382
##########                DOCK_Rotatable_Bonds:                   6
##########                         Heavy_Atoms:                  26
##########                    Molecular_Weight:             370.475
##########                DOCK_Rotatable_Bonds:                   6
##########                       Formal_Charge:               -0.03
##########                     HBond_Acceptors:                   7
##########                        HBond_Donors:                   4
##########                         Heavy_Atoms:                  26
##########                          Grid_Score:          -26.788645
##########                     Grid_vdw_energy:          -24.668921
##########                      Grid_es_energy:           -2.119725
##########           Internal_energy_repulsive:           16.365574

@<TRIPOS>MOLECULE
ZINC000846412382
 48 50 1 0 0
SMALL
USER_CHARGES


@<TRIPOS>ATOM
      1 C1         -5.1496    3.2288   51.2515 C.3     1  ZINC000846412382   -0.1400
      2 C2         -4.7184    3.2268   52.6955 C.2     1  ZINC000846412382    0.0300
      3 C3         -3.4818    3.5757   53.0724 C.2     1  ZINC000846412382   -0.2700
      4 C4         -2.4156    3.9936   52.1539 C.2     1  ZINC000846412382    0.6000
      5 O5         -2.5066    5.0494   51.5560 O.2     1  ZINC000846412382   -0.5200
      6 N6         -1.3357    3.2077   51.9731 N.am    1  ZINC000846412382   -0.7100
      7 C7         -0.2724    3.6239   51.0552 C.3     1  ZINC000846412382    0.1200
      8 H8         -0.5922    4.5097   50.5063 H       1  ZINC000846412382    0.1000
      9 C9          0.9924    3.9474   51.8530 C.3     1  ZINC000846412382   -0.1700
     10 C10         0.0223    2.4918   50.0692 C.3     1  ZINC000846412382    0.1700
     11 C11        -1.2633    2.1088   49.3333 C.3     1  ZINC000846412382   -0.1400
     12 O12         0.5195    1.3570   50.7814 O.3     1  ZINC000846412382   -0.5500
     13 C13         1.0544    2.9505   49.0714 C.ar    1  ZINC000846412382   -0.1200
     14 C14         2.0866    2.1062   48.7071 C.ar    1  ZINC000846412382   -0.1100
     15 C15         3.0333    2.5269   47.7919 C.ar    1  ZINC000846412382   -0.1200
     16 C16         2.9475    3.7916   47.2406 C.ar    1  ZINC000846412382   -0.1200
     17 C17         1.9148    4.6356   47.6043 C.ar    1  ZINC000846412382   -0.1200
     18 C18         0.9658    4.2133   48.5163 C.ar    1  ZINC000846412382   -0.1000
     19 S19        -3.3115    3.4650   54.8160 S.3     1  ZINC000846412382    0.2000
     20 C20        -4.9773    2.9307   54.9943 C.ar    1  ZINC000846412382    0.1400
     21 N21        -5.6899    2.6079   56.0795 N.ar    1  ZINC000846412382   -0.5300
     22 C22        -6.9432    2.2281   55.9794 C.ar    1  ZINC000846412382    0.3900
     23 C23        -7.7000    1.8763   57.2341 C.3     1  ZINC000846412382   -0.0900
     24 N24        -7.5625    2.1448   54.8159 N.ar    1  ZINC000846412382   -0.5800
     25 C25        -6.9432    2.4431   53.6840 C.ar    1  ZINC000846412382    0.5100
     26 N26        -7.6058    2.3504   52.4768 N.pl3   1  ZINC000846412382   -0.8300
     27 C27        -5.5848    2.8660   53.7326 C.ar    1  ZINC000846412382   -0.2500
     28 H28        -5.6397    4.1745   51.0201 H       1  ZINC000846412382    0.0800
     29 H29        -4.2760    3.1061   50.6113 H       1  ZINC000846412382    0.1100
     30 H30        -5.8448    2.4073   51.0788 H       1  ZINC000846412382    0.0700
     31 H31        -1.2624    2.3666   52.4506 H       1  ZINC000846412382    0.4000
     32 H32         1.3123    3.0616   52.4018 H       1  ZINC000846412382    0.0600
     33 H33         1.7835    4.2571   51.1701 H       1  ZINC000846412382    0.0800
     34 H34         0.7825    4.7540   52.5555 H       1  ZINC000846412382    0.0700
     35 H35        -1.6426    2.9742   48.7900 H       1  ZINC000846412382    0.0700
     36 H36        -1.0535    1.3022   48.6309 H       1  ZINC000846412382    0.0700
     37 H37        -2.0099    1.7770   50.0550 H       1  ZINC000846412382    0.0700
     38 H38        -0.0230    1.1000   51.5396 H       1  ZINC000846412382    0.3800
     39 H39         2.1535    1.1180   49.1378 H       1  ZINC000846412382    0.1300
     40 H40         3.8401    1.8676   47.5078 H       1  ZINC000846412382    0.1200
     41 H41         3.6876    4.1206   46.5262 H       1  ZINC000846412382    0.1200
     42 H42         1.8481    5.6239   47.1739 H       1  ZINC000846412382    0.1200
     43 H43         0.1589    4.8727   48.8005 H       1  ZINC000846412382    0.1300
     44 H44        -8.1860    2.7691   57.6278 H       1  ZINC000846412382    0.0900
     45 H45        -8.4541    1.1235   57.0045 H       1  ZINC000846412382    0.0900
     46 H46        -7.0075    1.4818   57.9776 H       1  ZINC000846412382    0.0900
     47 H47        -8.3885    1.7831   52.3955 H       1  ZINC000846412382    0.4100
     48 H48        -7.2889    2.8525   51.7099 H       1  ZINC000846412382    0.4200
@<TRIPOS>BOND
     1     1     2    1
     2     1    28    1
     3     1    29    1
     4     1    30    1
     5     2    27    1
     6     2     3    2
     7     3     4    1
     8     3    19    1
     9     4     5    2
    10     4     6   am
    11     6     7    1
    12     6    31    1
    13     7     8    1
    14     7     9    1
    15     7    10    1
    16     9    32    1
    17     9    33    1
    18     9    34    1
    19    10    11    1
    20    10    12    1
    21    10    13    1
    22    11    35    1
    23    11    36    1
    24    11    37    1
    25    12    38    1
    26    13    18   ar
    27    13    14   ar
    28    14    15   ar
    29    14    39    1
    30    15    16   ar
    31    15    40    1
    32    16    17   ar
    33    16    41    1
    34    17    18   ar
    35    17    42    1
    36    18    43    1
    37    19    20    1
    38    20    27   ar
    39    20    21   ar
    40    21    22   ar
    41    22    23    1
    42    22    24   ar
    43    23    44    1
    44    23    45    1
    45    23    46    1
    46    24    25   ar
    47    25    26    1
    48    25    27   ar
    49    26    47    1
    50    26    48    1
@<TRIPOS>SUBSTRUCTURE
     1 ZINC000846412382        1 TEMP              0 ****  ****    0 ROOT


##########                                Name:    ZINC000013551438
##########                DOCK_Rotatable_Bonds:                   5
##########                         Heavy_Atoms:                  27
##########                    Molecular_Weight:             377.467
##########                DOCK_Rotatable_Bonds:                   5
##########                       Formal_Charge:          -0.0300005
##########                     HBond_Acceptors:                   6
##########                        HBond_Donors:                   1
##########                         Heavy_Atoms:                  27
##########                          Grid_Score:          -26.776308
##########                     Grid_vdw_energy:          -26.024548
##########                      Grid_es_energy:           -0.751761
##########           Internal_energy_repulsive:            4.857510

@<TRIPOS>MOLECULE
ZINC000013551438
 46 49 1 0 0
SMALL
USER_CHARGES


@<TRIPOS>ATOM
      1 C1        -10.3649   -0.3235   52.0228 C.3     1  <0>         0.0300
      2 O2        -11.4127   -0.0327   52.9498 O.3     1  <0>        -0.3200
      3 C3        -11.2244   -0.4266   54.2378 C.ar    1  <0>         0.1000
      4 C4        -11.8731   -1.5607   54.7182 C.ar    1  <0>        -0.1800
      5 C5        -11.6931   -1.9728   56.0199 C.ar    1  <0>        -0.0900
      6 C6        -10.8568   -1.2539   56.8677 C.ar    1  <0>         0.0700
      7 C7        -10.2006   -0.1090   56.3844 C.ar    1  <0>        -0.0400
      8 C8        -10.3856    0.2968   55.0632 C.ar    1  <0>        -0.1100
      9 C9         -9.4077    0.4116   57.5094 C.2     1  <0>        -0.1200
     10 C10        -8.5377    1.6132   57.4977 C.2     1  <0>         0.1700
     11 C11        -8.8132    2.7230   58.2082 C.2     1  <0>        -0.3000
     12 S12        -7.5325    3.8945   57.9077 S.3     1  <0>         0.2500
     13 C13        -6.7496    2.7926   56.8619 C.2     1  <0>         0.2400
     14 N14        -5.5618    3.0464   56.1891 N.am    1  <0>        -0.6200
     15 C15        -5.5408    3.0628   54.8417 C.2     1  <0>         0.5600
     16 O16        -6.5621    2.8569   54.2153 O.2     1  <0>        -0.5000
     17 C17        -4.2761    3.3313   54.1256 C.ar    1  <0>        -0.1400
     18 C18        -3.0551    2.9779   54.7027 C.ar    1  <0>        -0.0800
     19 C19        -1.8782    3.2307   54.0287 C.ar    1  <0>        -0.1300
     20 C20        -1.9064    3.8333   52.7834 C.ar    1  <0>        -0.0800
     21 C21        -3.1131    4.1865   52.2060 C.ar    1  <0>        -0.1300
     22 C22        -4.2976    3.9340   52.8666 C.ar    1  <0>        -0.0500
     23 N23        -7.4173    1.6854   56.7903 N.2     1  <0>        -0.5000
     24 C24        -9.6260   -0.4175   58.5577 C.2     1  <0>         0.1300
     25 C25        -9.0129   -0.2654   59.9260 C.3     1  <0>        -0.0900
     26 N26       -10.4876   -1.4134   58.1875 N.pl3   1  <0>        -0.4800
     27 C27       -10.9513   -2.4913   59.0645 C.3     1  <0>         0.0800
     28 H28       -10.2069   -1.4012   51.9793 H       1  <0>         0.0500
     29 H29       -10.6421    0.0432   51.0344 H       1  <0>         0.1000
     30 H30        -9.4464    0.1656   52.3473 H       1  <0>         0.0500
     31 H31       -12.5239   -2.1222   54.0642 H       1  <0>         0.1300
     32 H32       -12.2016   -2.8539   56.3825 H       1  <0>         0.1200
     33 H33        -9.8824    1.1764   54.6897 H       1  <0>         0.1300
     34 H34        -9.6694    2.8694   58.8500 H       1  <0>         0.1800
     35 H35        -4.7472    3.2119   56.6890 H       1  <0>         0.4200
     36 H36        -3.0317    2.5078   55.6747 H       1  <0>         0.1300
     37 H37        -0.9329    2.9582   54.4741 H       1  <0>         0.1300
     38 H38        -0.9822    4.0290   52.2600 H       1  <0>         0.1300
     39 H39        -3.1280    4.6569   51.2338 H       1  <0>         0.1300
     40 H40        -5.2388    4.2099   52.4146 H       1  <0>         0.1400
     41 H41        -9.7025    0.2743   60.5751 H       1  <0>         0.0800
     42 H42        -8.8141   -1.2511   60.3466 H       1  <0>         0.0700
     43 H43        -8.0789    0.2906   59.8458 H       1  <0>         0.0800
     44 H44       -11.8626   -2.1784   59.5742 H       1  <0>         0.0700
     45 H45       -11.1552   -3.3816   58.4695 H       1  <0>         0.0800
     46 H46       -10.1812   -2.7160   59.8025 H       1  <0>         0.0800
@<TRIPOS>BOND
     1     1     2    1
     2     1    28    1
     3     1    29    1
     4     1    30    1
     5     2     3    1
     6     3     8   ar
     7     3     4   ar
     8     4     5   ar
     9     4    31    1
    10     5     6   ar
    11     5    32    1
    12     6    26    1
    13     6     7   ar
    14     7     8   ar
    15     7     9    1
    16     8    33    1
    17     9    10    1
    18     9    24    2
    19    10    23    1
    20    10    11    2
    21    11    12    1
    22    11    34    1
    23    12    13    1
    24    13    14    1
    25    13    23    2
    26    14    15   am
    27    14    35    1
    28    15    16    2
    29    15    17    1
    30    17    22   ar
    31    17    18   ar
    32    18    19   ar
    33    18    36    1
    34    19    20   ar
    35    19    37    1
    36    20    21   ar
    37    20    38    1
    38    21    22   ar
    39    21    39    1
    40    22    40    1
    41    24    25    1
    42    24    26    1
    43    25    41    1
    44    25    42    1
    45    25    43    1
    46    26    27    1
    47    27    44    1
    48    27    45    1
    49    27    46    1
@<TRIPOS>SUBSTRUCTURE
     1 <0>         1 TEMP              0 ****  ****    0 ROOT


##########                                Name:    ZINC000225856071
##########                DOCK_Rotatable_Bonds:                   6
##########                         Heavy_Atoms:                  29
##########                    Molecular_Weight:             409.549
##########                DOCK_Rotatable_Bonds:                   6
##########                       Formal_Charge:         -0.00999989
##########                     HBond_Acceptors:                   5
##########                        HBond_Donors:                   1
##########                         Heavy_Atoms:                  29
##########                          Grid_Score:          -26.752661
##########                     Grid_vdw_energy:          -26.112850
##########                      Grid_es_energy:           -0.639810
##########           Internal_energy_repulsive:           40.264008

@<TRIPOS>MOLECULE
ZINC000225856071
 56 58 1 0 0
SMALL
USER_CHARGES


@<TRIPOS>ATOM
      1 C1         -1.5520    2.4210   56.4941 C.3     1  ZINC000225856071    0.0200
      2 O2         -1.9098    3.5709   55.7249 O.3     1  ZINC000225856071   -0.3100
      3 C3         -3.0029    3.4621   54.9246 C.ar    1  ZINC000225856071    0.1900
      4 C4         -2.8611    3.0522   53.6072 C.ar    1  ZINC000225856071   -0.2300
      5 C5         -3.9740    2.9419   52.7957 C.ar    1  ZINC000225856071    0.0700
      6 C6         -3.8207    2.4966   51.3642 C.3     1  ZINC000225856071   -0.1800
      7 C7         -5.2280    3.2392   53.2960 C.ar    1  ZINC000225856071   -0.7100
      8 S8         -6.6452    3.0970   52.2589 S.o2    1  ZINC000225856071    2.7000
      9 O9         -6.7577    4.3302   51.5619 O.2     1  ZINC000225856071   -0.9600
     10 O10        -6.5383    1.8407   51.6034 O.2     1  ZINC000225856071   -0.9500
     11 N11        -7.9690    2.9967   53.2488 N.am    1  ZINC000225856071   -1.1100
     12 C12        -8.0809    1.8997   54.2133 C.3     1  ZINC000225856071    0.2400
     13 H13        -7.1402    1.3504   54.2495 H       1  ZINC000225856071    0.1100
     14 C14        -9.1893    0.9704   53.7907 C.ar    1  ZINC000225856071   -0.1000
     15 C15        -9.5140    0.8452   52.4528 C.ar    1  ZINC000225856071   -0.1000
     16 C16       -10.5307   -0.0074   52.0651 C.ar    1  ZINC000225856071   -0.1200
     17 C17       -11.2225   -0.7351   53.0153 C.ar    1  ZINC000225856071   -0.1100
     18 C18       -10.8973   -0.6106   54.3530 C.ar    1  ZINC000225856071   -0.1100
     19 C19        -9.8777    0.2386   54.7404 C.ar    1  ZINC000225856071   -0.1000
     20 C20        -8.3882    2.4601   55.5781 C.ar    1  ZINC000225856071   -0.0900
     21 C21        -7.6323    2.0754   56.6693 C.ar    1  ZINC000225856071   -0.1000
     22 C22        -7.9143    2.5896   57.9214 C.ar    1  ZINC000225856071   -0.1200
     23 C23        -8.9517    3.4886   58.0817 C.ar    1  ZINC000225856071   -0.0800
     24 C24        -9.2593    4.0487   59.4465 C.3     1  ZINC000225856071   -0.1200
     25 C25        -9.7070    3.8745   56.9898 C.ar    1  ZINC000225856071   -0.1200
     26 C26        -9.4227    3.3634   55.7376 C.ar    1  ZINC000225856071   -0.0600
     27 C27       -10.2459    3.7840   54.5474 C.3     1  ZINC000225856071   -0.1300
     28 C28        -5.3719    3.6476   54.6093 C.ar    1  ZINC000225856071    0.0200
     29 C29        -4.2630    3.7553   55.4259 C.ar    1  ZINC000225856071   -0.1400
     30 C30        -4.4207    4.2000   56.8571 C.3     1  ZINC000225856071   -0.1100
     31 H31        -1.3429    1.5866   55.8246 H       1  ZINC000225856071    0.0600
     32 H32        -0.6644    2.6423   57.0870 H       1  ZINC000225856071    0.1000
     33 H33        -2.3756    2.1570   57.1576 H       1  ZINC000225856071    0.0600
     34 H34        -1.8817    2.8197   53.2158 H       1  ZINC000225856071    0.1400
     35 H35        -3.9085    1.4115   51.3098 H       1  ZINC000225856071    0.0900
     36 H36        -4.6002    2.9551   50.7557 H       1  ZINC000225856071    0.1000
     37 H37        -2.8427    2.8012   50.9916 H       1  ZINC000225856071    0.0800
     38 H38        -8.6702    3.6643   53.1901 H       1  ZINC000225856071    0.4200
     39 H39        -8.9734    1.4137   51.7105 H       1  ZINC000225856071    0.1200
     40 H40       -10.7848   -0.1046   51.0199 H       1  ZINC000225856071    0.1200
     41 H41       -12.0173   -1.4006   52.7124 H       1  ZINC000225856071    0.1200
     42 H42       -11.4380   -1.1789   55.0953 H       1  ZINC000225856071    0.1200
     43 H43        -9.6236    0.3359   55.7855 H       1  ZINC000225856071    0.1200
     44 H44        -6.8216    1.3728   56.5440 H       1  ZINC000225856071    0.1200
     45 H45        -7.3240    2.2884   58.7742 H       1  ZINC000225856071    0.1200
     46 H46        -8.6856    4.9623   59.6021 H       1  ZINC000225856071    0.0700
     47 H47       -10.3239    4.2720   59.5161 H       1  ZINC000225856071    0.0700
     48 H48        -8.9909    3.3169   60.2084 H       1  ZINC000225856071    0.0700
     49 H49       -10.5174    4.5773   57.1151 H       1  ZINC000225856071    0.1200
     50 H50        -9.7978    4.6655   54.0889 H       1  ZINC000225856071    0.0800
     51 H51       -10.2757    2.9719   53.8209 H       1  ZINC000225856071    0.0700
     52 H52       -11.2598    4.0188   54.8716 H       1  ZINC000225856071    0.0700
     53 H53        -6.3527    3.8790   54.9981 H       1  ZINC000225856071    0.1500
     54 H54        -4.5779    3.3287   57.4930 H       1  ZINC000225856071    0.0700
     55 H55        -3.5201    4.7247   57.1759 H       1  ZINC000225856071    0.0700
     56 H56        -5.2782    4.8680   56.9377 H       1  ZINC000225856071    0.0700
@<TRIPOS>BOND
     1     1     2    1
     2     1    31    1
     3     1    32    1
     4     1    33    1
     5     2     3    1
     6     3    29   ar
     7     3     4   ar
     8     4     5   ar
     9     4    34    1
    10     5     6    1
    11     5     7   ar
    12     6    35    1
    13     6    36    1
    14     6    37    1
    15     7     8    1
    16     7    28   ar
    17     8     9    2
    18     8    10    2
    19     8    11   am
    20    11    12    1
    21    11    38    1
    22    12    13    1
    23    12    14    1
    24    12    20    1
    25    14    19   ar
    26    14    15   ar
    27    15    16   ar
    28    15    39    1
    29    16    17   ar
    30    16    40    1
    31    17    18   ar
    32    17    41    1
    33    18    19   ar
    34    18    42    1
    35    19    43    1
    36    20    26   ar
    37    20    21   ar
    38    21    22   ar
    39    21    44    1
    40    22    23   ar
    41    22    45    1
    42    23    24    1
    43    23    25   ar
    44    24    46    1
    45    24    47    1
    46    24    48    1
    47    25    26   ar
    48    25    49    1
    49    26    27    1
    50    27    50    1
    51    27    51    1
    52    27    52    1
    53    28    29   ar
    54    28    53    1
    55    29    30    1
    56    30    54    1
    57    30    55    1
    58    30    56    1
@<TRIPOS>SUBSTRUCTURE
     1 ZINC000225856071        1 TEMP              0 ****  ****    0 ROOT


##########                                Name:    ZINC000459459628
##########                DOCK_Rotatable_Bonds:                   8
##########                         Heavy_Atoms:                  27
##########                    Molecular_Weight:             377.366
##########                DOCK_Rotatable_Bonds:                   8
##########                       Formal_Charge:         -0.00999984
##########                     HBond_Acceptors:                   8
##########                        HBond_Donors:                   1
##########                         Heavy_Atoms:                  27
##########                          Grid_Score:          -26.751625
##########                     Grid_vdw_energy:          -26.436508
##########                      Grid_es_energy:           -0.315117
##########           Internal_energy_repulsive:           17.401674

@<TRIPOS>MOLECULE
ZINC000459459628
 45 46 1 0 0
SMALL
USER_CHARGES


@<TRIPOS>ATOM
      1 C1         -9.3887    0.7444   57.6609 C.3     1  ZINC000459459628   -0.1600
      2 C2         -9.8388    0.4534   59.0940 C.3     1  ZINC000459459628    0.1600
      3 H3        -10.8801    0.7521   59.2155 H       1  ZINC000459459628    0.1100
      4 C4         -8.9650    1.2404   60.0728 C.3     1  ZINC000459459628   -0.0900
      5 C5         -9.5235    1.1046   61.4659 C.ar    1  ZINC000459459628   -0.0500
      6 C6        -10.7718    1.6185   61.7629 C.ar    1  ZINC000459459628   -0.1200
      7 C7        -11.2855    1.4946   63.0406 C.ar    1  ZINC000459459628   -0.0900
      8 C8        -10.5514    0.8567   64.0221 C.ar    1  ZINC000459459628   -0.1600
      9 C9         -9.3009    0.3409   63.7256 C.ar    1  ZINC000459459628    0.1000
     10 F10        -8.5822   -0.2830   64.6845 F       1  ZINC000459459628   -0.1400
     11 C11        -8.7898    0.4609   62.4446 C.ar    1  ZINC000459459628   -0.1500
     12 N12        -9.7072   -0.9802   59.3658 N.am    1  ZINC000459459628   -0.6200
     13 C13        -8.4184   -1.5290   59.7949 C.3     1  ZINC000459459628    0.0700
     14 C14       -10.7716   -1.7940   59.2208 C.2     1  ZINC000459459628    0.7100
     15 O15       -10.6621   -2.9840   59.4448 O.2     1  ZINC000459459628   -0.5700
     16 N16       -11.9575   -1.2886   58.8274 N.am    1  ZINC000459459628   -0.6800
     17 C17       -13.0648   -2.1352   58.6766 C.ar    1  ZINC000459459628    0.1500
     18 C18       -13.3018   -2.7545   57.4633 C.ar    1  ZINC000459459628   -0.0400
     19 C19       -14.4065   -3.5980   57.3173 C.ar    1  ZINC000459459628   -0.0300
     20 C20       -14.6564   -4.2424   56.0632 C.1     1  ZINC000459459628    0.2600
     21 N21       -14.8548   -4.7537   55.0684 N.1     1  ZINC000459459628   -0.4100
     22 C22       -15.2661   -3.8115   58.3977 C.ar    1  ZINC000459459628   -0.0500
     23 C23       -15.0246   -3.1905   59.6047 C.ar    1  ZINC000459459628   -0.1700
     24 C24       -13.9250   -2.3575   59.7526 C.ar    1  ZINC000459459628    0.1100
     25 O25       -13.6916   -1.7483   60.9440 O.3     1  ZINC000459459628   -0.3200
     26 C26       -14.2764   -0.4591   61.1390 C.3     1  ZINC000459459628    0.4100
     27 F27       -15.6598   -0.5407   60.9476 F       1  ZINC000459459628   -0.1900
     28 F28       -14.0107   -0.0185   62.4400 F       1  ZINC000459459628   -0.1900
     29 H29        -8.3474    0.4457   57.5395 H       1  ZINC000459459628    0.0600
     30 H30       -10.0112    0.1836   56.9637 H       1  ZINC000459459628    0.0600
     31 H31        -9.4867    1.8109   57.4588 H       1  ZINC000459459628    0.0700
     32 H32        -7.9485    0.8477   60.0490 H       1  ZINC000459459628    0.0800
     33 H33        -8.9551    2.2920   59.7863 H       1  ZINC000459459628    0.0900
     34 H34       -11.3461    2.1176   60.9964 H       1  ZINC000459459628    0.1300
     35 H35       -12.2608    1.8969   63.2715 H       1  ZINC000459459628    0.1300
     36 H36       -10.9526    0.7606   65.0202 H       1  ZINC000459459628    0.1300
     37 H37        -7.8148    0.0587   62.2122 H       1  ZINC000459459628    0.1300
     38 H38        -8.3566   -1.5027   60.8828 H       1  ZINC000459459628    0.0600
     39 H39        -8.3296   -2.5594   59.4507 H       1  ZINC000459459628    0.0700
     40 H40        -7.6104   -0.9331   59.3706 H       1  ZINC000459459628    0.0800
     41 H41       -12.0449   -0.3393   58.6487 H       1  ZINC000459459628    0.4100
     42 H42       -12.6351   -2.5866   56.6303 H       1  ZINC000459459628    0.1600
     43 H43       -16.1204   -4.4629   58.2872 H       1  ZINC000459459628    0.1400
     44 H44       -15.6907   -3.3563   60.4385 H       1  ZINC000459459628    0.1500
     45 H45       -13.8514    0.2447   60.4233 H       1  ZINC000459459628    0.1900
@<TRIPOS>BOND
     1     1     2    1
     2     1    29    1
     3     1    30    1
     4     1    31    1
     5     2     3    1
     6     2     4    1
     7     2    12    1
     8     4     5    1
     9     4    32    1
    10     4    33    1
    11     5    11   ar
    12     5     6   ar
    13     6     7   ar
    14     6    34    1
    15     7     8   ar
    16     7    35    1
    17     8     9   ar
    18     8    36    1
    19     9    10    1
    20     9    11   ar
    21    11    37    1
    22    12    13    1
    23    12    14   am
    24    13    38    1
    25    13    39    1
    26    13    40    1
    27    14    15    2
    28    14    16   am
    29    16    17    1
    30    16    41    1
    31    17    24   ar
    32    17    18   ar
    33    18    19   ar
    34    18    42    1
    35    19    20    1
    36    19    22   ar
    37    20    21    3
    38    22    23   ar
    39    22    43    1
    40    23    24   ar
    41    23    44    1
    42    24    25    1
    43    25    26    1
    44    26    27    1
    45    26    28    1
    46    26    45    1
@<TRIPOS>SUBSTRUCTURE
     1 ZINC000459459628        1 TEMP              0 ****  ****    0 ROOT


##########                                Name:    ZINC000643274279
##########                DOCK_Rotatable_Bonds:                   6
##########                         Heavy_Atoms:                  29
##########                    Molecular_Weight:             392.454
##########                DOCK_Rotatable_Bonds:                   6
##########                       Formal_Charge:         -0.00999939
##########                     HBond_Acceptors:                   6
##########                        HBond_Donors:                   2
##########                         Heavy_Atoms:                  29
##########                          Grid_Score:          -26.744160
##########                     Grid_vdw_energy:          -25.016376
##########                      Grid_es_energy:           -1.727784
##########           Internal_energy_repulsive:           10.591721

@<TRIPOS>MOLECULE
ZINC000643274279
 53 56 1 0 0
SMALL
USER_CHARGES


@<TRIPOS>ATOM
      1 O1        -11.3287    0.6948   58.0592 O.2     1  ZINC000643274279   -0.4900
      2 C2        -10.3965    1.1561   57.4335 C.2     1  ZINC000643274279    0.5100
      3 N3         -9.2203    1.3880   58.0493 N.am    1  ZINC000643274279   -0.6400
      4 C4         -9.0757    1.1027   59.4098 C.ar    1  ZINC000643274279    0.1300
      5 C5         -8.4223   -0.0577   59.8097 C.ar    1  ZINC000643274279   -0.1000
      6 C6         -8.2847   -0.3545   61.1547 C.ar    1  ZINC000643274279   -0.1000
      7 C7         -8.7988    0.5026   62.1024 C.ar    1  ZINC000643274279   -0.0600
      8 C8         -8.7119    0.1463   63.5761 C.3     1  ZINC000643274279   -0.0900
      9 C9         -7.7666    1.1180   64.2732 C.3     1  ZINC000643274279   -0.1200
     10 C10        -8.4983    2.3655   64.7450 C.3     1  ZINC000643274279   -0.1100
     11 C11        -8.9200    3.2915   63.6322 C.3     1  ZINC000643274279   -0.1600
     12 C12        -9.9404    2.6075   62.7433 C.2     1  ZINC000643274279    0.4100
     13 O13       -11.1279    2.8151   62.8738 O.2     1  ZINC000643274279   -0.4400
     14 C14        -9.4351    1.6816   61.7146 C.ar    1  ZINC000643274279   -0.1300
     15 C15        -9.5791    1.9809   60.3585 C.ar    1  ZINC000643274279   -0.1000
     16 C16       -10.5511    1.4609   55.9795 C.2     1  ZINC000643274279    0.5200
     17 O17       -10.3847    2.5933   55.5759 O.2     1  ZINC000643274279   -0.5000
     18 N18       -10.8754    0.4785   55.1158 N.am    1  ZINC000643274279   -0.5800
     19 C19       -11.1053   -0.9344   55.4685 C.3     1  ZINC000643274279    0.0900
     20 C20       -12.0138   -1.4821   54.3395 C.3     1  ZINC000643274279   -0.1400
     21 C21       -11.4480   -0.7430   53.0982 C.3     1  ZINC000643274279   -0.1200
     22 C22       -11.0646    0.6395   53.6667 C.3     1  ZINC000643274279    0.1800
     23 H23       -11.8623    1.3557   53.4694 H       1  ZINC000643274279    0.0900
     24 C24        -9.7814    1.1152   53.0358 C.ar    1  ZINC000643274279   -0.1000
     25 C25        -8.6882    0.2710   52.9742 C.ar    1  ZINC000643274279   -0.0900
     26 C26        -7.5107    0.7046   52.3963 C.ar    1  ZINC000643274279   -0.1400
     27 C27        -7.4259    1.9883   51.8771 C.ar    1  ZINC000643274279    0.1100
     28 O28        -6.2689    2.4171   51.3078 O.3     1  ZINC000643274279   -0.5000
     29 C29        -8.5243    2.8333   51.9398 C.ar    1  ZINC000643274279   -0.1400
     30 C30        -9.7010    2.3933   52.5143 C.ar    1  ZINC000643274279   -0.0900
     31 H31        -8.4742    1.7529   57.5482 H       1  ZINC000643274279    0.4200
     32 H32        -8.0206   -0.7312   59.0671 H       1  ZINC000643274279    0.1400
     33 H33        -7.7755   -1.2565   61.4604 H       1  ZINC000643274279    0.1400
     34 H34        -9.7021    0.2156   64.0264 H       1  ZINC000643274279    0.0800
     35 H35        -8.3330   -0.8701   63.6831 H       1  ZINC000643274279    0.0800
     36 H36        -7.3166    0.6222   65.1333 H       1  ZINC000643274279    0.0800
     37 H37        -6.9784    1.4086   63.5785 H       1  ZINC000643274279    0.0700
     38 H38        -9.3872    2.0585   65.2961 H       1  ZINC000643274279    0.0700
     39 H39        -7.8458    2.9143   65.4242 H       1  ZINC000643274279    0.0800
     40 H40        -9.3591    4.1932   64.0591 H       1  ZINC000643274279    0.0900
     41 H41        -8.0474    3.5633   63.0380 H       1  ZINC000643274279    0.0900
     42 H42       -10.0814    2.8861   60.0508 H       1  ZINC000643274279    0.1300
     43 H43       -10.1608   -1.4779   55.4927 H       1  ZINC000643274279    0.0800
     44 H44       -11.6109   -1.0076   56.4314 H       1  ZINC000643274279    0.1000
     45 H45       -11.9013   -2.5613   54.2365 H       1  ZINC000643274279    0.0900
     46 H46       -13.0561   -1.2142   54.5123 H       1  ZINC000643274279    0.0800
     47 H47       -10.5715   -1.2600   52.7078 H       1  ZINC000643274279    0.0800
     48 H48       -12.2125   -0.6420   52.3278 H       1  ZINC000643274279    0.0900
     49 H49        -8.7547   -0.7283   53.3785 H       1  ZINC000643274279    0.1200
     50 H50        -6.6569    0.0450   52.3491 H       1  ZINC000643274279    0.1300
     51 H51        -5.5614    1.7578   51.3100 H       1  ZINC000643274279    0.3900
     52 H52        -8.4607    3.8332   51.5366 H       1  ZINC000643274279    0.1300
     53 H53       -10.5565    3.0506   52.5630 H       1  ZINC000643274279    0.1300
@<TRIPOS>BOND
     1     1     2    2
     2     2     3   am
     3     2    16    1
     4     3     4    1
     5     3    31    1
     6     4    15   ar
     7     4     5   ar
     8     5     6   ar
     9     5    32    1
    10     6     7   ar
    11     6    33    1
    12     7    14   ar
    13     7     8    1
    14     8     9    1
    15     8    34    1
    16     8    35    1
    17     9    10    1
    18     9    36    1
    19     9    37    1
    20    10    11    1
    21    10    38    1
    22    10    39    1
    23    11    12    1
    24    11    40    1
    25    11    41    1
    26    12    13    2
    27    12    14    1
    28    14    15   ar
    29    15    42    1
    30    16    17    2
    31    16    18   am
    32    18    22    1
    33    18    19    1
    34    19    20    1
    35    19    43    1
    36    19    44    1
    37    20    21    1
    38    20    45    1
    39    20    46    1
    40    21    22    1
    41    21    47    1
    42    21    48    1
    43    22    23    1
    44    22    24    1
    45    24    30   ar
    46    24    25   ar
    47    25    26   ar
    48    25    49    1
    49    26    27   ar
    50    26    50    1
    51    27    28    1
    52    27    29   ar
    53    28    51    1
    54    29    30   ar
    55    29    52    1
    56    30    53    1
@<TRIPOS>SUBSTRUCTURE
     1 ZINC000643274279        1 TEMP              0 ****  ****    0 ROOT


##########                                Name:    ZINC001011267435
##########                DOCK_Rotatable_Bonds:                   7
##########                         Heavy_Atoms:                  24
##########                    Molecular_Weight:             331.458
##########                DOCK_Rotatable_Bonds:                   7
##########                       Formal_Charge:        -4.47035e-08
##########                     HBond_Acceptors:                   5
##########                        HBond_Donors:                   0
##########                         Heavy_Atoms:                  24
##########                          Grid_Score:          -26.731001
##########                     Grid_vdw_energy:          -24.980190
##########                      Grid_es_energy:           -1.750810
##########           Internal_energy_repulsive:           35.192413

@<TRIPOS>MOLECULE
ZINC001011267435
 53 54 1 0 0
SMALL
USER_CHARGES


@<TRIPOS>ATOM
      1 C1        -11.7770   -1.1555   54.4393 C.3     1  ZINC001011267435   -0.1500
      2 C2        -12.5839   -1.3941   55.7171 C.3     1  ZINC001011267435   -0.1200
      3 C3        -13.8543   -2.1770   55.3794 C.3     1  ZINC001011267435   -0.0700
      4 C4        -14.4505   -2.7372   56.6450 C.ar    1  ZINC001011267435    0.1300
      5 C5        -14.6728   -1.9008   57.7215 C.ar    1  ZINC001011267435   -0.1200
      6 C6        -15.2266   -2.4328   58.8903 C.ar    1  ZINC001011267435   -0.0800
      7 C7        -15.4834   -1.5745   60.0701 C.2     1  ZINC001011267435    0.5600
      8 O8        -16.5943   -1.1202   60.2608 O.2     1  ZINC001011267435   -0.5200
      9 N9        -14.4850   -1.2974   60.9321 N.am    1  ZINC001011267435   -0.6100
     10 C10       -13.1352   -1.8349   60.7108 C.3     1  ZINC001011267435    0.0700
     11 C11       -12.1405   -0.6676   60.6885 C.3     1  ZINC001011267435    0.1000
     12 N12       -12.3820    0.1777   61.8662 N.am    1  ZINC001011267435   -0.6200
     13 C13       -11.3835    0.4555   62.7276 C.2     1  ZINC001011267435    0.5300
     14 O14       -11.5950    1.1543   63.6961 O.2     1  ZINC001011267435   -0.5300
     15 C15       -10.0043   -0.1022   62.4877 C.3     1  ZINC001011267435   -0.1100
     16 H16       -10.0789   -1.1599   62.2353 H       1  ZINC001011267435    0.0900
     17 C17        -9.1604    0.0617   63.7534 C.3     1  ZINC001011267435   -0.1500
     18 C18        -9.3428    0.6523   61.3326 C.3     1  ZINC001011267435   -0.0800
     19 C19        -8.6588    1.9107   61.8706 C.3     1  ZINC001011267435   -0.1500
     20 C20        -8.3015   -0.2483   60.6652 C.3     1  ZINC001011267435   -0.1500
     21 C21       -13.7319    0.7152   62.0875 C.3     1  ZINC001011267435    0.0900
     22 C22       -14.7252   -0.4474   62.1067 C.3     1  ZINC001011267435    0.1000
     23 C23       -15.5317   -3.7968   58.9142 C.ar    1  ZINC001011267435   -0.1600
     24 C24       -15.2761   -4.5602   57.7912 C.ar    1  ZINC001011267435    0.1100
     25 N25       -14.7578   -4.0176   56.7077 N.ar    1  ZINC001011267435   -0.4600
     26 H26       -11.5063   -2.1138   53.9963 H       1  ZINC001011267435    0.0600
     27 H27       -12.3781   -0.5847   53.7314 H       1  ZINC001011267435    0.0500
     28 H28       -10.8720   -0.5977   54.6800 H       1  ZINC001011267435    0.0600
     29 H29       -11.9829   -1.9648   56.4251 H       1  ZINC001011267435    0.0700
     30 H30       -12.8547   -0.4357   56.1602 H       1  ZINC001011267435    0.0600
     31 H31       -14.5742   -1.5126   54.9016 H       1  ZINC001011267435    0.0800
     32 H32       -13.6081   -2.9940   54.7012 H       1  ZINC001011267435    0.0900
     33 H33       -14.4224   -0.8520   57.6617 H       1  ZINC001011267435    0.1400
     34 H34       -12.8772   -2.5199   61.5185 H       1  ZINC001011267435    0.0800
     35 H35       -13.1029   -2.3613   59.7569 H       1  ZINC001011267435    0.1100
     36 H36       -11.1219   -1.0544   60.7186 H       1  ZINC001011267435    0.1100
     37 H37       -12.2852   -0.0810   59.7813 H       1  ZINC001011267435    0.0700
     38 H38        -8.1398   -0.2652   63.5546 H       1  ZINC001011267435    0.0800
     39 H39        -9.1544    1.1098   64.0529 H       1  ZINC001011267435    0.0600
     40 H40        -9.5860   -0.5425   64.5546 H       1  ZINC001011267435    0.0600
     41 H41       -10.1007    0.9348   60.6020 H       1  ZINC001011267435    0.0800
     42 H42        -8.1876    2.4482   61.0477 H       1  ZINC001011267435    0.0600
     43 H43        -9.4007    2.5523   62.3462 H       1  ZINC001011267435    0.0600
     44 H44        -7.9010    1.6281   62.6014 H       1  ZINC001011267435    0.0600
     45 H45        -8.7888   -1.1449   60.2819 H       1  ZINC001011267435    0.0600
     46 H46        -7.8303    0.2891   59.8423 H       1  ZINC001011267435    0.0600
     47 H47        -7.5436   -0.5309   61.3959 H       1  ZINC001011267435    0.0500
     48 H48       -13.7642    1.2416   63.0413 H       1  ZINC001011267435    0.1000
     49 H49       -13.9898    1.4003   61.2798 H       1  ZINC001011267435    0.0800
     50 H50       -15.7433   -0.0592   62.0767 H       1  ZINC001011267435    0.1100
     51 H51       -14.5820   -1.0360   63.0129 H       1  ZINC001011267435    0.0800
     52 H52       -15.9602   -4.2473   59.7973 H       1  ZINC001011267435    0.1500
     53 H53       -15.5080   -5.6150   57.8000 H       1  ZINC001011267435    0.1700
@<TRIPOS>BOND
     1     1     2    1
     2     1    26    1
     3     1    27    1
     4     1    28    1
     5     2     3    1
     6     2    29    1
     7     2    30    1
     8     3     4    1
     9     3    31    1
    10     3    32    1
    11     4    25   ar
    12     4     5   ar
    13     5     6   ar
    14     5    33    1
    15     6     7    1
    16     6    23   ar
    17     7     8    2
    18     7     9   am
    19     9    22    1
    20     9    10    1
    21    10    11    1
    22    10    34    1
    23    10    35    1
    24    11    12    1
    25    11    36    1
    26    11    37    1
    27    12    13   am
    28    12    21    1
    29    13    14    2
    30    13    15    1
    31    15    16    1
    32    15    17    1
    33    15    18    1
    34    17    38    1
    35    17    39    1
    36    17    40    1
    37    18    19    1
    38    18    20    1
    39    18    41    1
    40    19    42    1
    41    19    43    1
    42    19    44    1
    43    20    45    1
    44    20    46    1
    45    20    47    1
    46    21    22    1
    47    21    48    1
    48    21    49    1
    49    22    50    1
    50    22    51    1
    51    23    24   ar
    52    23    52    1
    53    24    25   ar
    54    24    53    1
@<TRIPOS>SUBSTRUCTURE
     1 ZINC001011267435        1 TEMP              0 ****  ****    0 ROOT


##########                                Name:    ZINC000482910431
##########                DOCK_Rotatable_Bonds:                   7
##########                         Heavy_Atoms:                  29
##########                    Molecular_Weight:             414.867
##########                DOCK_Rotatable_Bonds:                   7
##########                       Formal_Charge:          -0.0300001
##########                     HBond_Acceptors:                   8
##########                        HBond_Donors:                   2
##########                         Heavy_Atoms:                  29
##########                          Grid_Score:          -26.710403
##########                     Grid_vdw_energy:          -26.050211
##########                      Grid_es_energy:           -0.660192
##########           Internal_energy_repulsive:           24.275564

@<TRIPOS>MOLECULE
ZINC000482910431
 49 51 1 0 0
SMALL
USER_CHARGES


@<TRIPOS>ATOM
      1 C1        -10.1296    2.6108   63.3794 C.3     1  ZINC000482910431   -0.1500
      2 C2         -9.4769    1.2281   63.3272 C.3     1  ZINC000482910431    0.0800
      3 C3         -8.0381    1.3619   62.8241 C.3     1  ZINC000482910431   -0.1400
      4 C4         -9.4723    0.6364   64.6750 C.1     1  ZINC000482910431    0.2100
      5 N5         -9.4687    0.1797   65.7152 N.1     1  ZINC000482910431   -0.4300
      6 C6        -10.2556    0.3399   62.3915 C.ar    1  ZINC000482910431   -0.1000
      7 C7         -9.6066   -0.3120   61.3590 C.ar    1  ZINC000482910431   -0.0900
      8 C8        -10.3173   -1.1270   60.4999 C.ar    1  ZINC000482910431   -0.1200
      9 C9        -11.6852   -1.2916   60.6738 C.ar    1  ZINC000482910431    0.1700
     10 N10       -12.4081   -2.1172   59.8053 N.am    1  ZINC000482910431   -0.6800
     11 C11       -12.5184   -1.7920   58.5022 C.2     1  ZINC000482910431    0.7100
     12 O12       -11.9899   -0.7812   58.0810 O.2     1  ZINC000482910431   -0.5500
     13 N13       -13.2147   -2.5871   57.6657 N.am    1  ZINC000482910431   -0.7300
     14 C14       -13.3361   -2.2326   56.2494 C.3     1  ZINC000482910431    0.1400
     15 H15       -13.8401   -3.0276   55.7000 H       1  ZINC000482910431    0.1400
     16 C16       -14.0983   -0.8968   56.0893 C.3     1  ZINC000482910431   -0.1400
     17 C17       -13.3588   -0.2534   54.8953 C.3     1  ZINC000482910431    0.0900
     18 N18       -12.0135   -0.8399   54.9059 N.am    1  ZINC000482910431   -0.5600
     19 C19       -10.9138   -0.3058   54.2243 C.ar    1  ZINC000482910431    0.2000
     20 C20       -10.5684   -0.7941   52.9712 C.ar    1  ZINC000482910431   -0.1600
     21 C21        -9.4828   -0.2661   52.2995 C.ar    1  ZINC000482910431   -0.0500
     22 C22        -8.7390    0.7488   52.8737 C.ar    1  ZINC000482910431   -0.1000
     23 Cl23       -7.3753    1.4098   52.0265 Cl      1  ZINC000482910431   -0.0500
     24 C24        -9.0810    1.2392   54.1243 C.ar    1  ZINC000482910431    0.1400
     25 F25        -8.3534    2.2310   54.6830 F       1  ZINC000482910431   -0.1200
     26 C26       -10.1702    0.7171   54.7978 C.ar    1  ZINC000482910431   -0.1900
     27 C27       -11.9727   -1.9591   55.6534 C.2     1  ZINC000482910431    0.5000
     28 O28       -10.9866   -2.6439   55.8257 O.2     1  ZINC000482910431   -0.4800
     29 C29       -12.3341   -0.6356   61.7116 C.ar    1  ZINC000482910431   -0.1400
     30 C30       -11.6167    0.1739   62.5704 C.ar    1  ZINC000482910431   -0.0900
     31 H31       -10.1330    3.0489   62.3813 H       1  ZINC000482910431    0.0800
     32 H32       -11.1547    2.5154   63.7378 H       1  ZINC000482910431    0.0700
     33 H33        -9.5664    3.2533   64.0563 H       1  ZINC000482910431    0.0700
     34 H34        -7.4748    2.0044   63.5010 H       1  ZINC000482910431    0.0700
     35 H35        -7.5731    0.3769   62.7869 H       1  ZINC000482910431    0.0700
     36 H36        -8.0415    1.8000   61.8261 H       1  ZINC000482910431    0.0800
     37 H37        -8.5428   -0.1833   61.2240 H       1  ZINC000482910431    0.1400
     38 H38        -9.8098   -1.6356   59.6935 H       1  ZINC000482910431    0.1400
     39 H39       -12.8298   -2.9235   60.1415 H       1  ZINC000482910431    0.4100
     40 H40       -13.6353   -3.3940   58.0015 H       1  ZINC000482910431    0.4000
     41 H41       -15.1470   -1.0724   55.8499 H       1  ZINC000482910431    0.1100
     42 H42       -14.0016   -0.2828   56.9847 H       1  ZINC000482910431    0.1000
     43 H43       -13.8679   -0.4944   53.9622 H       1  ZINC000482910431    0.0900
     44 H44       -13.3003    0.8272   55.0258 H       1  ZINC000482910431    0.1000
     45 H45       -11.1482   -1.5868   52.5219 H       1  ZINC000482910431    0.1700
     46 H46        -9.2143   -0.6466   51.3250 H       1  ZINC000482910431    0.1500
     47 H47       -10.4374    1.0990   55.7720 H       1  ZINC000482910431    0.1500
     48 H48       -13.3978   -0.7616   61.8494 H       1  ZINC000482910431    0.1300
     49 H49       -12.1208    0.6841   63.3780 H       1  ZINC000482910431    0.1300
@<TRIPOS>BOND
     1     1     2    1
     2     1    31    1
     3     1    32    1
     4     1    33    1
     5     2     3    1
     6     2     4    1
     7     2     6    1
     8     3    34    1
     9     3    35    1
    10     3    36    1
    11     4     5    3
    12     6    30   ar
    13     6     7   ar
    14     7     8   ar
    15     7    37    1
    16     8     9   ar
    17     8    38    1
    18     9    10    1
    19     9    29   ar
    20    10    11   am
    21    10    39    1
    22    11    12    2
    23    11    13   am
    24    13    14    1
    25    13    40    1
    26    14    15    1
    27    14    27    1
    28    14    16    1
    29    16    17    1
    30    16    41    1
    31    16    42    1
    32    17    18    1
    33    17    43    1
    34    17    44    1
    35    18    19    1
    36    18    27   am
    37    19    26   ar
    38    19    20   ar
    39    20    21   ar
    40    20    45    1
    41    21    22   ar
    42    21    46    1
    43    22    23    1
    44    22    24   ar
    45    24    25    1
    46    24    26   ar
    47    26    47    1
    48    27    28    2
    49    29    30   ar
    50    29    48    1
    51    30    49    1
@<TRIPOS>SUBSTRUCTURE
     1 ZINC000482910431        1 TEMP              0 ****  ****    0 ROOT


##########                                Name:    ZINC000163855860
##########                DOCK_Rotatable_Bonds:                   6
##########                         Heavy_Atoms:                  28
##########                    Molecular_Weight:             398.483
##########                DOCK_Rotatable_Bonds:                   6
##########                       Formal_Charge:          -0.0100004
##########                     HBond_Acceptors:                   7
##########                        HBond_Donors:                   1
##########                         Heavy_Atoms:                  28
##########                          Grid_Score:          -26.698387
##########                     Grid_vdw_energy:          -24.548050
##########                      Grid_es_energy:           -2.150338
##########           Internal_energy_repulsive:           16.422007

@<TRIPOS>MOLECULE
ZINC000163855860
 50 53 1 0 0
SMALL
USER_CHARGES


@<TRIPOS>ATOM
      1 C1         -7.6904    2.1447   54.5094 C.3     1  ZINC000163855860   -0.1300
      2 C2         -7.7962    2.8345   53.1737 C.ar    1  ZINC000163855860   -0.0600
      3 C3         -6.6590    3.0542   52.4126 C.ar    1  ZINC000163855860    0.1400
      4 N4         -5.4097    2.6348   52.8839 N.am    1  ZINC000163855860   -0.6700
      5 C5         -4.5819    3.5178   53.4768 C.2     1  ZINC000163855860    0.5100
      6 O6         -4.9197    4.6759   53.6019 O.2     1  ZINC000163855860   -0.5100
      7 C7         -3.2368    3.0661   53.9842 C.3     1  ZINC000163855860   -0.1300
      8 C8         -3.3113    2.8408   55.4958 C.3     1  ZINC000163855860   -0.1100
      9 H9         -4.0134    2.0425   55.7362 H       1  ZINC000163855860    0.1100
     10 C10        -1.9116    2.5367   56.0767 C.3     1  ZINC000163855860    0.0600
     11 O11        -1.9215    3.1607   57.3948 O.3     1  ZINC000163855860   -0.3500
     12 C12        -2.7165    4.2401   57.3829 C.2     1  ZINC000163855860    0.4800
     13 O13        -2.6632    5.1509   58.1750 O.2     1  ZINC000163855860   -0.4500
     14 C14        -3.6909    4.1467   56.2287 C.3     1  ZINC000163855860   -0.1800
     15 C15        -6.7599    3.6859   51.1785 C.ar    1  ZINC000163855860   -0.1100
     16 C16        -7.9913    4.1011   50.7082 C.ar    1  ZINC000163855860   -0.1100
     17 C17        -9.1293    3.8913   51.4607 C.ar    1  ZINC000163855860   -0.1000
     18 C18        -9.0385    3.2583   52.7014 C.ar    1  ZINC000163855860   -0.1100
     19 C19       -10.2559    3.0318   53.5093 C.2     1  ZINC000163855860    0.5700
     20 O20       -10.5751    3.8336   54.3653 O.2     1  ZINC000163855860   -0.5300
     21 N21       -11.0118    1.9365   53.2967 N.am    1  ZINC000163855860   -0.6100
     22 C22       -10.6437    0.9540   52.2661 C.3     1  ZINC000163855860    0.1200
     23 C23       -10.3053   -0.3731   52.9632 C.3     1  ZINC000163855860   -0.0600
     24 C24       -11.3669   -0.6709   54.0007 C.2     1  ZINC000163855860   -0.1700
     25 C25       -12.2241    0.2325   54.5128 C.2     1  ZINC000163855860   -0.1300
     26 C26       -13.0958   -0.2946   55.4603 C.2     1  ZINC000163855860   -0.1200
     27 C27       -12.9571   -1.5927   55.7106 C.2     1  ZINC000163855860   -0.2100
     28 S28       -11.6608   -2.2482   54.7220 S.3     1  ZINC000163855860    0.1100
     29 C29       -12.2289    1.6955   54.0844 C.3     1  ZINC000163855860    0.1700
     30 H30        -7.6233    2.8922   55.3000 H       1  ZINC000163855860    0.0700
     31 H31        -8.5727    1.5250   54.6692 H       1  ZINC000163855860    0.0900
     32 H32        -6.7986    1.5182   54.5251 H       1  ZINC000163855860    0.0700
     33 H33        -5.1396    1.7084   52.7839 H       1  ZINC000163855860    0.4100
     34 H34        -2.4910    3.8309   53.7672 H       1  ZINC000163855860    0.1100
     35 H35        -2.9564    2.1352   53.4916 H       1  ZINC000163855860    0.1100
     36 H36        -1.1358    2.9792   55.4519 H       1  ZINC000163855860    0.0800
     37 H37        -1.7621    1.4608   56.1662 H       1  ZINC000163855860    0.1200
     38 H38        -4.7142    4.0899   56.5997 H       1  ZINC000163855860    0.1200
     39 H39        -3.5745    5.0026   55.5638 H       1  ZINC000163855860    0.1200
     40 H40        -5.8731    3.8525   50.5851 H       1  ZINC000163855860    0.1500
     41 H41        -8.0636    4.5911   49.7485 H       1  ZINC000163855860    0.1300
     42 H42       -10.0897    4.2173   51.0897 H       1  ZINC000163855860    0.1300
     43 H43       -11.4809    0.8084   51.5835 H       1  ZINC000163855860    0.0800
     44 H44        -9.7750    1.3116   51.7131 H       1  ZINC000163855860    0.1000
     45 H45        -9.3328   -0.2943   53.4490 H       1  ZINC000163855860    0.0900
     46 H46       -10.2806   -1.1759   52.2262 H       1  ZINC000163855860    0.0900
     47 H47       -13.8369    0.3115   55.9601 H       1  ZINC000163855860    0.1400
     48 H48       -13.5508   -2.1582   56.4136 H       1  ZINC000163855860    0.1700
     49 H49       -12.2320    2.3380   54.9649 H       1  ZINC000163855860    0.1000
     50 H50       -13.1095    1.8998   53.4753 H       1  ZINC000163855860    0.0900
@<TRIPOS>BOND
     1     1     2    1
     2     1    30    1
     3     1    31    1
     4     1    32    1
     5     2    18   ar
     6     2     3   ar
     7     3     4    1
     8     3    15   ar
     9     4     5   am
    10     4    33    1
    11     5     6    2
    12     5     7    1
    13     7     8    1
    14     7    34    1
    15     7    35    1
    16     8     9    1
    17     8    14    1
    18     8    10    1
    19    10    11    1
    20    10    36    1
    21    10    37    1
    22    11    12    1
    23    12    13    2
    24    12    14    1
    25    14    38    1
    26    14    39    1
    27    15    16   ar
    28    15    40    1
    29    16    17   ar
    30    16    41    1
    31    17    18   ar
    32    17    42    1
    33    18    19    1
    34    19    20    2
    35    19    21   am
    36    21    29    1
    37    21    22    1
    38    22    23    1
    39    22    43    1
    40    22    44    1
    41    23    24    1
    42    23    45    1
    43    23    46    1
    44    24    28    1
    45    24    25    2
    46    25    26    1
    47    25    29    1
    48    26    27    2
    49    26    47    1
    50    27    28    1
    51    27    48    1
    52    29    49    1
    53    29    50    1
@<TRIPOS>SUBSTRUCTURE
     1 ZINC000163855860        1 TEMP              0 ****  ****    0 ROOT


##########                                Name:    ZINC001070580102
##########                DOCK_Rotatable_Bonds:                   8
##########                         Heavy_Atoms:                  25
##########                    Molecular_Weight:              349.39
##########                DOCK_Rotatable_Bonds:                   8
##########                       Formal_Charge:          -0.0100003
##########                     HBond_Acceptors:                   9
##########                        HBond_Donors:                   3
##########                         Heavy_Atoms:                  25
##########                          Grid_Score:          -26.695599
##########                     Grid_vdw_energy:          -26.267952
##########                      Grid_es_energy:           -0.427647
##########           Internal_energy_repulsive:           12.402538

@<TRIPOS>MOLECULE
ZINC001070580102
 48 50 1 0 0
SMALL
USER_CHARGES


@<TRIPOS>ATOM
      1 C1         -6.6452    2.7400   56.3263 C.3     1  ZINC001070580102   -0.0800
      2 C2         -7.2984    1.9963   55.1900 C.2     1  ZINC001070580102   -0.0100
      3 C3         -8.3948    1.2294   55.2904 C.2     1  ZINC001070580102   -0.1900
      4 C4         -8.6555    0.7178   53.9369 C.2     1  ZINC001070580102   -0.2500
      5 C5         -9.7522   -0.1727   53.5170 C.2     1  ZINC001070580102    0.6000
      6 O6         -9.8449   -0.5166   52.3542 O.2     1  ZINC001070580102   -0.5300
      7 N7        -10.6524   -0.6059   54.4217 N.am    1  ZINC001070580102   -0.7200
      8 C8        -11.7435   -1.4896   54.0039 C.3     1  ZINC001070580102    0.2000
      9 C9        -12.9552   -1.2322   54.8622 C.2     1  ZINC001070580102    0.2600
     10 N10       -13.1307   -1.6512   56.0892 N.2     1  ZINC001070580102   -0.5100
     11 C11       -14.3143   -1.2401   56.5422 C.2     1  ZINC001070580102    0.2300
     12 C12       -14.8739   -1.5233   57.9124 C.3     1  ZINC001070580102    0.1400
     13 H13       -15.8207   -0.9973   58.0349 H       1  ZINC001070580102    0.0800
     14 C14       -13.8829   -1.0470   58.9779 C.3     1  ZINC001070580102    0.0800
     15 O15       -14.3844   -1.3857   60.2736 O.3     1  ZINC001070580102   -0.3800
     16 C16       -14.6074   -2.7865   60.4567 C.3     1  ZINC001070580102    0.0600
     17 C17       -15.6057   -3.2804   59.4063 C.3     1  ZINC001070580102    0.0200
     18 N18       -15.0925   -2.9691   58.0642 N.3     1  ZINC001070580102   -0.5200
     19 C19       -15.9963   -3.4782   57.0239 C.3     1  ZINC001070580102    0.0600
     20 C20       -15.2824   -4.5625   56.2143 C.3     1  ZINC001070580102    0.0800
     21 O21       -15.0234   -5.6903   57.0529 O.3     1  ZINC001070580102   -0.5700
     22 N22       -14.9111   -0.5506   55.6057 N.2     1  ZINC001070580102   -0.2700
     23 N23       -14.0417   -0.5269   54.5028 N.pl3   1  ZINC001070580102   -0.4700
     24 C24        -7.6705    1.2402   53.1509 C.2     1  ZINC001070580102    0.0900
     25 C25        -7.5059    1.0056   51.6714 C.3     1  ZINC001070580102   -0.0900
     26 O26        -6.8795    1.9997   53.9148 O.3     1  ZINC001070580102   -0.1700
     27 H27        -5.7769    3.2833   55.9535 H       1  ZINC001070580102    0.0800
     28 H28        -7.3573    3.4444   56.7564 H       1  ZINC001070580102    0.0900
     29 H29        -6.3291    2.0304   57.0909 H       1  ZINC001070580102    0.0900
     30 H30        -8.9686    1.0287   56.1831 H       1  ZINC001070580102    0.1500
     31 H31       -10.5778   -0.3326   55.3493 H       1  ZINC001070580102    0.4000
     32 H32       -11.9897   -1.2947   52.9600 H       1  ZINC001070580102    0.1000
     33 H33       -11.4330   -2.5284   54.1160 H       1  ZINC001070580102    0.1100
     34 H34       -12.9197   -1.5328   58.8221 H       1  ZINC001070580102    0.0700
     35 H35       -13.7622    0.0339   58.9053 H       1  ZINC001070580102    0.1000
     36 H36       -13.6652   -3.3227   60.3439 H       1  ZINC001070580102    0.0600
     37 H37       -15.0106   -2.9636   61.4537 H       1  ZINC001070580102    0.1000
     38 H38       -15.7351   -4.3581   59.5056 H       1  ZINC001070580102    0.1200
     39 H39       -16.5644   -2.7829   59.5531 H       1  ZINC001070580102    0.0400
     40 H40       -16.8864   -3.9000   57.4905 H       1  ZINC001070580102    0.0500
     41 H41       -16.2851   -2.6616   56.3622 H       1  ZINC001070580102    0.0800
     42 H42       -15.9137   -4.8677   55.3798 H       1  ZINC001070580102    0.0500
     43 H43       -14.3401   -4.1697   55.8323 H       1  ZINC001070580102    0.0600
     44 H44       -15.8142   -6.0631   57.4661 H       1  ZINC001070580102    0.3800
     45 H45       -14.1972   -0.0932   53.6492 H       1  ZINC001070580102    0.4400
     46 H46        -8.0562    1.7675   51.1193 H       1  ZINC001070580102    0.0900
     47 H47        -6.4490    1.0600   51.4103 H       1  ZINC001070580102    0.0800
     48 H48        -7.8933    0.0198   51.4145 H       1  ZINC001070580102    0.1100
@<TRIPOS>BOND
     1     1     2    1
     2     1    27    1
     3     1    28    1
     4     1    29    1
     5     2    26    1
     6     2     3    2
     7     3     4    1
     8     3    30    1
     9     4     5    1
    10     4    24    2
    11     5     6    2
    12     5     7   am
    13     7     8    1
    14     7    31    1
    15     8     9    1
    16     8    32    1
    17     8    33    1
    18     9    23    1
    19     9    10    2
    20    10    11    1
    21    11    12    1
    22    11    22    2
    23    12    13    1
    24    12    18    1
    25    12    14    1
    26    14    15    1
    27    14    34    1
    28    14    35    1
    29    15    16    1
    30    16    17    1
    31    16    36    1
    32    16    37    1
    33    17    18    1
    34    17    38    1
    35    17    39    1
    36    18    19    1
    37    19    20    1
    38    19    40    1
    39    19    41    1
    40    20    21    1
    41    20    42    1
    42    20    43    1
    43    21    44    1
    44    22    23    1
    45    23    45    1
    46    24    25    1
    47    24    26    1
    48    25    46    1
    49    25    47    1
    50    25    48    1
@<TRIPOS>SUBSTRUCTURE
     1 ZINC001070580102        1 TEMP              0 ****  ****    0 ROOT


##########                                Name:    ZINC000623581528
##########                DOCK_Rotatable_Bonds:                   5
##########                         Heavy_Atoms:                  26
##########                    Molecular_Weight:             355.369
##########                DOCK_Rotatable_Bonds:                   5
##########                       Formal_Charge:        -4.47035e-07
##########                     HBond_Acceptors:                   7
##########                        HBond_Donors:                   2
##########                         Heavy_Atoms:                  26
##########                          Grid_Score:          -26.672977
##########                     Grid_vdw_energy:          -27.291063
##########                      Grid_es_energy:            0.618086
##########           Internal_energy_repulsive:            4.751233

@<TRIPOS>MOLECULE
ZINC000623581528
 44 47 1 0 0
SMALL
USER_CHARGES


@<TRIPOS>ATOM
      1 C1        -14.0071    0.4929   61.7312 C.3     1  ZINC000623581528    0.1000
      2 N2        -13.5313   -0.7035   61.0321 N.am    1  ZINC000623581528   -0.5500
      3 C3        -14.2777   -1.7667   60.6732 C.2     1  ZINC000623581528    0.6300
      4 O4        -15.4697   -1.8896   60.8798 O.2     1  ZINC000623581528   -0.4800
      5 O5        -13.5015   -2.6689   60.0525 O.3     1  ZINC000623581528   -0.2300
      6 C6        -12.2304   -2.2010   59.9989 C.ar    1  ZINC000623581528    0.0400
      7 C7        -11.0543   -2.7177   59.4793 C.ar    1  ZINC000623581528   -0.0800
      8 C8         -9.8818   -1.9931   59.5750 C.ar    1  ZINC000623581528   -0.0900
      9 C9         -9.8755   -0.7527   60.1881 C.ar    1  ZINC000623581528   -0.0900
     10 C10        -8.5914    0.0299   60.2875 C.3     1  ZINC000623581528    0.1800
     11 N11        -8.0425    0.2400   58.9455 N.am    1  ZINC000623581528   -0.7400
     12 C12        -7.7393    1.4854   58.5290 C.2     1  ZINC000623581528    0.7100
     13 O13        -7.9226    2.4347   59.2663 O.2     1  ZINC000623581528   -0.5800
     14 N14        -7.2328    1.6785   57.2950 N.am    1  ZINC000623581528   -0.7300
     15 C15        -6.9014    3.0321   56.8428 C.3     1  ZINC000623581528    0.2000
     16 H16        -6.6209    3.6556   57.6916 H       1  ZINC000623581528    0.1000
     17 C17        -8.0988    3.6546   56.0937 C.3     1  ZINC000623581528   -0.1300
     18 C18        -7.8001    3.2838   54.6255 C.3     1  ZINC000623581528   -0.0800
     19 C19        -6.2958    3.1315   54.5535 C.ar    1  ZINC000623581528   -0.1000
     20 C20        -5.4469    3.1204   53.4595 C.ar    1  ZINC000623581528   -0.0800
     21 C21        -4.0859    2.9658   53.6365 C.ar    1  ZINC000623581528   -0.1400
     22 C22        -3.5678    2.8210   54.9120 C.ar    1  ZINC000623581528    0.0900
     23 F23        -2.2369    2.6701   55.0887 F       1  ZINC000623581528   -0.1400
     24 C24        -4.4154    2.8315   56.0057 C.ar    1  ZINC000623581528   -0.1200
     25 C25        -5.7776    2.9870   55.8299 C.ar    1  ZINC000623581528   -0.0900
     26 C26       -11.0433   -0.2294   60.7093 C.ar    1  ZINC000623581528   -0.0800
     27 C27       -12.2243   -0.9475   60.6112 C.ar    1  ZINC000623581528    0.0700
     28 H28       -14.3329    1.2345   61.0017 H       1  ZINC000623581528    0.0800
     29 H29       -14.8436    0.2274   62.3777 H       1  ZINC000623581528    0.0900
     30 H30       -13.1990    0.9069   62.3342 H       1  ZINC000623581528    0.0900
     31 H31       -11.0541   -3.6857   59.0005 H       1  ZINC000623581528    0.1500
     32 H32        -8.9658   -2.3969   59.1696 H       1  ZINC000623581528    0.1500
     33 H33        -8.7892    0.9947   60.7544 H       1  ZINC000623581528    0.0800
     34 H34        -7.8733   -0.5254   60.8909 H       1  ZINC000623581528    0.0800
     35 H35        -7.8974   -0.5172   58.3569 H       1  ZINC000623581528    0.4000
     36 H36        -7.0877    0.9214   56.7063 H       1  ZINC000623581528    0.4000
     37 H37        -9.0367    3.2075   56.4230 H       1  ZINC000623581528    0.0900
     38 H38        -8.1172    4.7366   56.2239 H       1  ZINC000623581528    0.0900
     39 H39        -8.2882    2.3444   54.3658 H       1  ZINC000623581528    0.0800
     40 H40        -8.1320    4.0801   53.9593 H       1  ZINC000623581528    0.0800
     41 H41        -5.8504    3.2334   52.4642 H       1  ZINC000623581528    0.1300
     42 H42        -3.4269    2.9577   52.7810 H       1  ZINC000623581528    0.1400
     43 H43        -4.0115    2.7184   57.0010 H       1  ZINC000623581528    0.1400
     44 H44       -11.0365    0.7389   61.1875 H       1  ZINC000623581528    0.1400
@<TRIPOS>BOND
     1     1     2    1
     2     1    28    1
     3     1    29    1
     4     1    30    1
     5     2    27    1
     6     2     3   am
     7     3     4    2
     8     3     5    1
     9     5     6    1
    10     6    27   ar
    11     6     7   ar
    12     7     8   ar
    13     7    31    1
    14     8     9   ar
    15     8    32    1
    16     9    10    1
    17     9    26   ar
    18    10    11    1
    19    10    33    1
    20    10    34    1
    21    11    12   am
    22    11    35    1
    23    12    13    2
    24    12    14   am
    25    14    15    1
    26    14    36    1
    27    15    16    1
    28    15    25    1
    29    15    17    1
    30    17    18    1
    31    17    37    1
    32    17    38    1
    33    18    19    1
    34    18    39    1
    35    18    40    1
    36    19    25   ar
    37    19    20   ar
    38    20    21   ar
    39    20    41    1
    40    21    22   ar
    41    21    42    1
    42    22    23    1
    43    22    24   ar
    44    24    25   ar
    45    24    43    1
    46    26    27   ar
    47    26    44    1
@<TRIPOS>SUBSTRUCTURE
     1 ZINC000623581528        1 TEMP              0 ****  ****    0 ROOT


##########                                Name:    ZINC001490207225
##########                DOCK_Rotatable_Bonds:                   7
##########                         Heavy_Atoms:                  24
##########                    Molecular_Weight:             334.378
##########                DOCK_Rotatable_Bonds:                   7
##########                       Formal_Charge:           -0.010001
##########                     HBond_Acceptors:                   9
##########                        HBond_Donors:                   3
##########                         Heavy_Atoms:                  24
##########                          Grid_Score:          -26.666414
##########                     Grid_vdw_energy:          -26.253647
##########                      Grid_es_energy:           -0.412768
##########           Internal_energy_repulsive:            6.903291

@<TRIPOS>MOLECULE
ZINC001490207225
 46 48 1 0 0
SMALL
USER_CHARGES


@<TRIPOS>ATOM
      1 C1         -7.6002    4.5745   57.6021 C.3     1  ZINC001490207225    0.0900
      2 N2         -7.7832    3.2258   58.1441 N.pl3   1  ZINC001490207225   -0.3600
      3 C3         -8.4926    2.9102   59.2394 C.2     1  ZINC001490207225    0.1300
      4 C4         -8.4131    1.5418   59.4031 C.2     1  ZINC001490207225   -0.3000
      5 C5         -9.0415    0.7508   60.4769 C.2     1  ZINC001490207225    0.6200
      6 O6         -8.5239    0.6983   61.5760 O.2     1  ZINC001490207225   -0.5400
      7 N7        -10.1897    0.0858   60.2403 N.am    1  ZINC001490207225   -0.6200
      8 C8        -10.9429   -0.7380   61.1998 C.3     1  ZINC001490207225    0.1100
      9 C9        -11.6225   -1.8473   60.3802 C.3     1  ZINC001490207225   -0.1100
     10 H10       -11.1107   -2.8043   60.4829 H       1  ZINC001490207225    0.1000
     11 C11       -13.1082   -1.9375   60.7878 C.3     1  ZINC001490207225    0.1000
     12 N12       -13.8420   -2.0686   59.5079 N.am    1  ZINC001490207225   -0.6200
     13 C13       -14.9074   -2.8500   59.2420 C.2     1  ZINC001490207225    0.5300
     14 O14       -15.3734   -3.5562   60.1109 O.2     1  ZINC001490207225   -0.5300
     15 C15       -15.5197   -2.8462   57.8651 C.3     1  ZINC001490207225    0.1200
     16 N16       -16.0826   -4.1678   57.5772 N.am    1  ZINC001490207225   -0.7400
     17 C17       -15.2945   -5.1425   57.0818 C.2     1  ZINC001490207225    0.7100
     18 N18       -15.8120   -6.3588   56.8185 N.am    1  ZINC001490207225   -0.8600
     19 O19       -14.1168   -4.9246   56.8726 O.2     1  ZINC001490207225   -0.5900
     20 C20       -13.1392   -1.1460   58.5868 C.3     1  ZINC001490207225    0.1100
     21 C21       -11.6178   -1.3348   58.9166 C.3     1  ZINC001490207225   -0.0800
     22 C22       -10.9322   -2.2924   57.9399 C.3     1  ZINC001490207225   -0.1300
     23 C23       -10.9388    0.0466   58.9737 C.3     1  ZINC001490207225    0.1000
     24 C24        -7.6169    1.0411   58.3487 C.2     1  ZINC001490207225    0.0700
     25 N25        -7.2530    2.0487   57.6043 N.2     1  ZINC001490207225   -0.2900
     26 H26        -8.3985    4.7923   56.8927 H       1  ZINC001490207225    0.0800
     27 H27        -7.6289    5.2999   58.4152 H       1  ZINC001490207225    0.0900
     28 H28        -6.6371    4.6347   57.0952 H       1  ZINC001490207225    0.1000
     29 H29        -9.0272    3.6000   59.8757 H       1  ZINC001490207225    0.1900
     30 H30       -10.2635   -1.1760   61.9310 H       1  ZINC001490207225    0.0900
     31 H31       -11.6952   -0.1313   61.7039 H       1  ZINC001490207225    0.0800
     32 H32       -13.2776   -2.8134   61.4141 H       1  ZINC001490207225    0.0900
     33 H33       -13.4144   -1.0311   61.3100 H       1  ZINC001490207225    0.0900
     34 H34       -16.3103   -2.0971   57.8210 H       1  ZINC001490207225    0.1000
     35 H35       -14.7531   -2.6092   57.1272 H       1  ZINC001490207225    0.1000
     36 H36       -17.0224   -4.3413   57.7430 H       1  ZINC001490207225    0.4100
     37 H37       -15.2445   -7.0606   56.4630 H       1  ZINC001490207225    0.4000
     38 H38       -16.7517   -6.5323   56.9843 H       1  ZINC001490207225    0.4200
     39 H39       -13.3322   -1.4238   57.5507 H       1  ZINC001490207225    0.0900
     40 H40       -13.4502   -0.1173   58.7693 H       1  ZINC001490207225    0.0800
     41 H41       -10.9981   -1.8893   56.9293 H       1  ZINC001490207225    0.0700
     42 H42        -9.8845   -2.4066   58.2181 H       1  ZINC001490207225    0.0600
     43 H43       -11.4258   -3.2635   57.9765 H       1  ZINC001490207225    0.0600
     44 H44       -11.6924    0.8341   58.9774 H       1  ZINC001490207225    0.0800
     45 H45       -10.2715    0.1710   58.1208 H       1  ZINC001490207225    0.0900
     46 H46        -7.3585    0.0054   58.1852 H       1  ZINC001490207225    0.2000
@<TRIPOS>BOND
     1     1     2    1
     2     1    26    1
     3     1    27    1
     4     1    28    1
     5     2    25    1
     6     2     3    1
     7     3     4    2
     8     3    29    1
     9     4     5    1
    10     4    24    1
    11     5     6    2
    12     5     7   am
    13     7    23    1
    14     7     8    1
    15     8     9    1
    16     8    30    1
    17     8    31    1
    18     9    10    1
    19     9    21    1
    20     9    11    1
    21    11    12    1
    22    11    32    1
    23    11    33    1
    24    12    13   am
    25    12    20    1
    26    13    14    2
    27    13    15    1
    28    15    16    1
    29    15    34    1
    30    15    35    1
    31    16    17   am
    32    16    36    1
    33    17    18   am
    34    17    19    2
    35    18    37    1
    36    18    38    1
    37    20    21    1
    38    20    39    1
    39    20    40    1
    40    21    22    1
    41    21    23    1
    42    22    41    1
    43    22    42    1
    44    22    43    1
    45    23    44    1
    46    23    45    1
    47    24    25    2
    48    24    46    1
@<TRIPOS>SUBSTRUCTURE
     1 ZINC001490207225        1 TEMP              0 ****  ****    0 ROOT


##########                                Name:    ZINC000156038173
##########                DOCK_Rotatable_Bonds:                  10
##########                         Heavy_Atoms:                  27
##########                    Molecular_Weight:             396.357
##########                DOCK_Rotatable_Bonds:                  10
##########                       Formal_Charge:         -0.00999981
##########                     HBond_Acceptors:                  10
##########                        HBond_Donors:                   1
##########                         Heavy_Atoms:                  27
##########                          Grid_Score:          -26.651495
##########                     Grid_vdw_energy:          -25.393946
##########                      Grid_es_energy:           -1.257549
##########           Internal_energy_repulsive:           40.056686

@<TRIPOS>MOLECULE
ZINC000156038173
 48 48 1 0 0
SMALL
USER_CHARGES


@<TRIPOS>ATOM
      1 C1         -8.4545    4.0645   58.9669 C.3     1  ZINC000156038173    0.0700
      2 N2         -8.0703    2.9621   58.0821 N.am    1  ZINC000156038173   -0.6300
      3 C3         -7.6901    3.2353   56.6939 C.3     1  ZINC000156038173    0.1500
      4 C4         -6.1709    3.3929   56.6028 C.3     1  ZINC000156038173   -0.1400
      5 C5         -5.7806    3.6819   55.1761 C.2     1  ZINC000156038173    0.4700
      6 O6         -6.5299    4.3010   54.4584 O.2     1  ZINC000156038173   -0.5000
      7 O7         -4.6006    3.2514   54.7028 O.3     1  ZINC000156038173   -0.3500
      8 C8         -4.2530    3.6393   53.3475 C.3     1  ZINC000156038173    0.1200
      9 C9         -4.2525    5.1653   53.2379 C.3     1  ZINC000156038173   -0.1800
     10 C10        -2.8617    3.1030   53.0045 C.3     1  ZINC000156038173   -0.1400
     11 C11        -5.2783    3.0582   52.3718 C.3     1  ZINC000156038173   -0.1800
     12 C12        -8.0664    1.6963   58.5451 C.2     1  ZINC000156038173    0.7100
     13 O13        -7.7460    0.7814   57.8113 O.2     1  ZINC000156038173   -0.5700
     14 N14        -8.4177    1.4448   59.8218 N.am    1  ZINC000156038173   -0.7400
     15 C15        -8.4119    0.0692   60.3256 C.3     1  ZINC000156038173    0.1700
     16 H16        -7.5018   -0.4338   59.9984 H       1  ZINC000156038173    0.1500
     17 C17        -9.6129   -0.6671   59.7903 C.ar    1  ZINC000156038173   -0.1300
     18 C18       -10.8422   -0.0375   59.7372 C.ar    1  ZINC000156038173   -0.0700
     19 C19       -11.9450   -0.7116   59.2464 C.ar    1  ZINC000156038173   -0.1000
     20 C20       -11.8206   -2.0164   58.8079 C.ar    1  ZINC000156038173   -0.1100
     21 C21       -10.5909   -2.6496   58.8598 C.ar    1  ZINC000156038173    0.0700
     22 F22       -10.4685   -3.9250   58.4313 F       1  ZINC000156038173   -0.1200
     23 C23        -9.4837   -1.9717   59.3466 C.ar    1  ZINC000156038173    0.1000
     24 F24        -8.2825   -2.5878   59.3983 F       1  ZINC000156038173   -0.1200
     25 C25        -8.4636    0.0858   61.8547 C.3     1  ZINC000156038173    0.4500
     26 F26        -9.6256   -0.5610   62.2889 F       1  ZINC000156038173   -0.1700
     27 F27        -7.3424   -0.5761   62.3665 F       1  ZINC000156038173   -0.1600
     28 F28        -8.4703    1.4098   62.3067 F       1  ZINC000156038173   -0.1700
     29 H29        -9.5297    4.2290   58.8966 H       1  ZINC000156038173    0.0600
     30 H30        -8.1918    3.8141   59.9947 H       1  ZINC000156038173    0.0700
     31 H31        -7.9281    4.9709   58.6678 H       1  ZINC000156038173    0.0800
     32 H32        -8.0081    2.4073   56.0604 H       1  ZINC000156038173    0.1000
     33 H33        -8.1715    4.1543   56.3596 H       1  ZINC000156038173    0.0900
     34 H34        -5.8522    4.2171   57.2407 H       1  ZINC000156038173    0.1100
     35 H35        -5.6897    2.4718   56.9317 H       1  ZINC000156038173    0.1100
     36 H36        -3.5221    5.5793   53.9330 H       1  ZINC000156038173    0.0600
     37 H37        -3.9915    5.4564   52.2204 H       1  ZINC000156038173    0.0700
     38 H38        -5.2436    5.5474   53.4822 H       1  ZINC000156038173    0.0800
     39 H39        -2.8619    2.0157   53.0826 H       1  ZINC000156038173    0.0700
     40 H40        -2.6006    3.3941   51.9871 H       1  ZINC000156038173    0.0800
     41 H41        -2.1312    3.5169   53.6997 H       1  ZINC000156038173    0.0700
     42 H42        -6.2694    3.4402   52.6161 H       1  ZINC000156038173    0.0800
     43 H43        -5.0173    3.3493   51.3543 H       1  ZINC000156038173    0.0700
     44 H44        -5.2786    1.9709   52.4499 H       1  ZINC000156038173    0.0600
     45 H45        -8.6745    2.1745   60.4070 H       1  ZINC000156038173    0.4100
     46 H46       -10.9414    0.9819   60.0797 H       1  ZINC000156038173    0.1400
     47 H47       -12.9048   -0.2182   59.2060 H       1  ZINC000156038173    0.1500
     48 H48       -12.6830   -2.5420   58.4251 H       1  ZINC000156038173    0.1500
@<TRIPOS>BOND
     1     1     2    1
     2     1    29    1
     3     1    30    1
     4     1    31    1
     5     2     3    1
     6     2    12   am
     7     3     4    1
     8     3    32    1
     9     3    33    1
    10     4     5    1
    11     4    34    1
    12     4    35    1
    13     5     6    2
    14     5     7    1
    15     7     8    1
    16     8     9    1
    17     8    10    1
    18     8    11    1
    19     9    36    1
    20     9    37    1
    21     9    38    1
    22    10    39    1
    23    10    40    1
    24    10    41    1
    25    11    42    1
    26    11    43    1
    27    11    44    1
    28    12    13    2
    29    12    14   am
    30    14    15    1
    31    14    45    1
    32    15    16    1
    33    15    17    1
    34    15    25    1
    35    17    23   ar
    36    17    18   ar
    37    18    19   ar
    38    18    46    1
    39    19    20   ar
    40    19    47    1
    41    20    21   ar
    42    20    48    1
    43    21    22    1
    44    21    23   ar
    45    23    24    1
    46    25    26    1
    47    25    27    1
    48    25    28    1
@<TRIPOS>SUBSTRUCTURE
     1 ZINC000156038173        1 TEMP              0 ****  ****    0 ROOT


##########                                Name:    ZINC000460163972
##########                DOCK_Rotatable_Bonds:                   7
##########                         Heavy_Atoms:                  28
##########                    Molecular_Weight:             408.469
##########                DOCK_Rotatable_Bonds:                   7
##########                       Formal_Charge:          -0.0100001
##########                     HBond_Acceptors:                   8
##########                        HBond_Donors:                   2
##########                         Heavy_Atoms:                  28
##########                          Grid_Score:          -26.625122
##########                     Grid_vdw_energy:          -27.312269
##########                      Grid_es_energy:            0.687148
##########           Internal_energy_repulsive:           47.583755

@<TRIPOS>MOLECULE
ZINC000460163972
 50 52 1 0 0
SMALL
USER_CHARGES


@<TRIPOS>ATOM
      1 C1         -0.2083    1.9168   47.0659 C.3     1  ZINC000460163972   -0.1400
      2 C2         -0.7039    2.4704   48.3769 C.ar    1  ZINC000460163972    0.0100
      3 C3         -2.0623    2.5846   48.6081 C.ar    1  ZINC000460163972   -0.1300
      4 C4         -2.5199    3.0917   49.8088 C.ar    1  ZINC000460163972   -0.0600
      5 C5         -1.6141    3.4865   50.7841 C.ar    1  ZINC000460163972    0.1100
      6 N6         -2.0743    4.0001   52.0017 N.am    1  ZINC000460163972   -0.6700
      7 C7         -2.9483    3.2923   52.7444 C.2     1  ZINC000460163972    0.5200
      8 O8         -3.3360    2.2101   52.3574 O.2     1  ZINC000460163972   -0.5100
      9 C9         -3.4440    3.8454   54.0557 C.3     1  ZINC000460163972   -0.0700
     10 H10        -2.7879    3.5147   54.8607 H       1  ZINC000460163972    0.1200
     11 C11        -3.4469    5.3743   53.9957 C.3     1  ZINC000460163972   -0.1500
     12 C12        -4.8438    3.3500   54.3128 C.ar    1  ZINC000460163972   -0.0600
     13 C13        -5.7790    3.3647   53.2952 C.ar    1  ZINC000460163972   -0.0700
     14 C14        -7.0640    2.9108   53.5287 C.ar    1  ZINC000460163972   -0.1200
     15 C15        -7.4146    2.4407   54.7820 C.ar    1  ZINC000460163972    0.0700
     16 F16        -8.6698    1.9965   55.0108 F       1  ZINC000460163972   -0.1300
     17 C17        -6.4760    2.4255   55.8028 C.ar    1  ZINC000460163972    0.0700
     18 F18        -6.8160    1.9670   57.0273 F       1  ZINC000460163972   -0.1300
     19 C19        -5.1895    2.8760   55.5647 C.ar    1  ZINC000460163972   -0.1200
     20 C20        -0.2501    3.3701   50.5490 C.ar    1  ZINC000460163972    0.0000
     21 C21         0.7365    3.7970   51.6052 C.3     1  ZINC000460163972   -0.1500
     22 C22         0.2008    2.8580   49.3485 C.ar    1  ZINC000460163972   -0.6700
     23 S23         1.9308    2.7094   49.0494 S.o2    1  ZINC000460163972    2.7000
     24 O24         2.2701    3.7419   48.1340 O.2     1  ZINC000460163972   -0.9500
     25 O25         2.5471    2.5652   50.3217 O.2     1  ZINC000460163972   -0.9500
     26 N26         2.1688    1.2788   48.2498 N.am    1  ZINC000460163972   -1.0900
     27 C27         1.7721    0.0151   48.8755 C.3     1  ZINC000460163972    0.0800
     28 C28         2.2559   -1.2802   48.2202 C.3     1  ZINC000460163972   -0.1800
     29 C29         2.8684   -0.8172   49.5436 C.3     1  ZINC000460163972   -0.1900
     30 H30        -0.0086    0.8507   47.1740 H       1  ZINC000460163972    0.1000
     31 H31        -0.9666    2.0684   46.2975 H       1  ZINC000460163972    0.0800
     32 H32         0.7086    2.4309   46.7779 H       1  ZINC000460163972    0.0700
     33 H33        -2.7664    2.2773   47.8490 H       1  ZINC000460163972    0.1400
     34 H34        -3.5811    3.1812   49.9885 H       1  ZINC000460163972    0.1600
     35 H35        -1.7643    4.8655   52.3112 H       1  ZINC000460163972    0.4100
     36 H36        -3.8054    5.7743   54.9441 H       1  ZINC000460163972    0.0800
     37 H37        -2.4344    5.7326   53.8097 H       1  ZINC000460163972    0.0700
     38 H38        -4.1030    5.7051   53.1906 H       1  ZINC000460163972    0.0700
     39 H39        -5.5060    3.7316   52.3168 H       1  ZINC000460163972    0.1400
     40 H40        -7.7940    2.9235   52.7330 H       1  ZINC000460163972    0.1500
     41 H41        -4.4576    2.8644   56.3588 H       1  ZINC000460163972    0.1500
     42 H42         1.0532    2.9265   52.1796 H       1  ZINC000460163972    0.1000
     43 H43         1.6043    4.2532   51.1286 H       1  ZINC000460163972    0.1000
     44 H44         0.2658    4.5202   52.2711 H       1  ZINC000460163972    0.0700
     45 H45         2.5710    1.2778   47.3670 H       1  ZINC000460163972    0.4200
     46 H46         0.7840    0.0081   49.3356 H       1  ZINC000460163972    0.1300
     47 H47         1.5860   -2.1395   48.2491 H       1  ZINC000460163972    0.1100
     48 H48         2.8693   -1.1919   47.3236 H       1  ZINC000460163972    0.1000
     49 H49         3.8848   -0.4243   49.5176 H       1  ZINC000460163972    0.1000
     50 H50         2.6015   -1.3719   50.4432 H       1  ZINC000460163972    0.1000
@<TRIPOS>BOND
     1     1     2    1
     2     1    30    1
     3     1    31    1
     4     1    32    1
     5     2    22   ar
     6     2     3   ar
     7     3     4   ar
     8     3    33    1
     9     4     5   ar
    10     4    34    1
    11     5     6    1
    12     5    20   ar
    13     6     7   am
    14     6    35    1
    15     7     8    2
    16     7     9    1
    17     9    10    1
    18     9    11    1
    19     9    12    1
    20    11    36    1
    21    11    37    1
    22    11    38    1
    23    12    19   ar
    24    12    13   ar
    25    13    14   ar
    26    13    39    1
    27    14    15   ar
    28    14    40    1
    29    15    16    1
    30    15    17   ar
    31    17    18    1
    32    17    19   ar
    33    19    41    1
    34    20    21    1
    35    20    22   ar
    36    21    42    1
    37    21    43    1
    38    21    44    1
    39    22    23    1
    40    23    24    2
    41    23    25    2
    42    23    26   am
    43    26    27    1
    44    26    45    1
    45    27    29    1
    46    27    28    1
    47    27    46    1
    48    28    29    1
    49    28    47    1
    50    28    48    1
    51    29    49    1
    52    29    50    1
@<TRIPOS>SUBSTRUCTURE
     1 ZINC000460163972        1 TEMP              0 ****  ****    0 ROOT


##########                                Name:    ZINC000461336108
##########                DOCK_Rotatable_Bonds:                   5
##########                         Heavy_Atoms:                  26
##########                    Molecular_Weight:             373.522
##########                DOCK_Rotatable_Bonds:                   5
##########                       Formal_Charge:        -3.42727e-07
##########                     HBond_Acceptors:                   7
##########                        HBond_Donors:                   0
##########                         Heavy_Atoms:                  26
##########                          Grid_Score:          -26.605011
##########                     Grid_vdw_energy:          -26.645275
##########                      Grid_es_energy:            0.040264
##########           Internal_energy_repulsive:           13.945159

@<TRIPOS>MOLECULE
ZINC000461336108
 53 56 1 0 0
SMALL
USER_CHARGES


@<TRIPOS>ATOM
      1 C1         -1.3168    2.4470   47.6984 C.3     1  ZINC000461336108   -0.1300
      2 C2         -0.5323    1.6344   48.7306 C.3     1  ZINC000461336108    0.0700
      3 H3         -1.1064    0.7500   49.0070 H       1  ZINC000461336108    0.0800
      4 C4          0.7817    1.2108   48.1375 C.2     1  ZINC000461336108    0.5300
      5 O5          0.7996    0.8048   46.9949 O.2     1  ZINC000461336108   -0.5300
      6 N6          1.9323    1.2631   48.8168 N.am    1  ZINC000461336108   -0.6100
      7 C7          3.1544    0.7920   48.1606 C.3     1  ZINC000461336108    0.0700
      8 C8          2.0249    1.7691   50.1832 C.3     1  ZINC000461336108    0.1200
      9 C9          0.6400    1.7813   50.8329 C.3     1  ZINC000461336108    0.0400
     10 N10        -0.2996    2.4578   49.9247 N.3     1  ZINC000461336108   -0.4300
     11 C11        -1.4934    2.7433   50.5678 C.2     1  ZINC000461336108    0.3300
     12 N12        -2.5619    1.9824   50.6030 N.2     1  ZINC000461336108   -0.2500
     13 N13        -3.4846    2.5567   51.2890 N.2     1  ZINC000461336108   -0.2800
     14 C14        -3.0632    3.7086   51.7286 C.2     1  ZINC000461336108    0.2000
     15 C15        -3.8450    4.6836   52.5708 C.3     1  ZINC000461336108   -0.0300
     16 C16        -4.7248    3.9139   53.5578 C.3     1  ZINC000461336108   -0.0900
     17 C17        -3.8577    3.2651   54.6651 C.3     1  ZINC000461336108   -0.1200
     18 C18        -4.8649    3.0885   55.8285 C.3     1  ZINC000461336108   -0.1200
     19 C19        -5.7417    4.3562   55.7654 C.3     1  ZINC000461336108   -0.1300
     20 C20        -5.6527    4.8809   54.3218 C.3     1  ZINC000461336108   -0.1200
     21 N21        -1.7779    3.8662   51.2891 N.pl3   1  ZINC000461336108   -0.4900
     22 C22        -0.8930    5.0076   51.5344 C.3     1  ZINC000461336108    0.1700
     23 C23         0.0074    4.7028   52.7039 C.2     1  ZINC000461336108   -0.2400
     24 C24        -0.2686    3.8391   53.6822 C.2     1  ZINC000461336108   -0.0900
     25 C25         0.7121    3.7238   54.6524 C.2     1  ZINC000461336108   -0.1400
     26 C26         1.7844    4.4939   54.4617 C.2     1  ZINC000461336108   -0.2000
     27 S27         1.5861    5.4259   52.9833 S.3     1  ZINC000461336108    0.1200
     28 H28        -0.7440    3.3318   47.4209 H       1  ZINC000461336108    0.0800
     29 H29        -1.4935    1.8361   46.8132 H       1  ZINC000461336108    0.0800
     30 H30        -2.2721    2.7518   48.1260 H       1  ZINC000461336108    0.0700
     31 H31         2.9172    0.4498   47.1533 H       1  ZINC000461336108    0.0900
     32 H32         3.8754    1.6077   48.1068 H       1  ZINC000461336108    0.0700
     33 H33         3.5800   -0.0319   48.7335 H       1  ZINC000461336108    0.0600
     34 H34         2.6903    1.1283   50.7619 H       1  ZINC000461336108    0.0900
     35 H35         2.4257    2.7827   50.1671 H       1  ZINC000461336108    0.0900
     36 H36         0.3089    0.7575   51.0072 H       1  ZINC000461336108    0.0500
     37 H37         0.6851    2.3193   51.7798 H       1  ZINC000461336108    0.1100
     38 H38        -3.1550    5.3230   53.1212 H       1  ZINC000461336108    0.0800
     39 H39        -4.4737    5.2978   51.9261 H       1  ZINC000461336108    0.1000
     40 H40        -5.3097    3.1566   53.0358 H       1  ZINC000461336108    0.0900
     41 H41        -3.4723    2.2995   54.3380 H       1  ZINC000461336108    0.0600
     42 H42        -3.0435    3.9287   54.9566 H       1  ZINC000461336108    0.0600
     43 H43        -5.4723    2.1965   55.6751 H       1  ZINC000461336108    0.0700
     44 H44        -4.3403    3.0345   56.7824 H       1  ZINC000461336108    0.0700
     45 H45        -6.7747    4.1082   56.0096 H       1  ZINC000461336108    0.0700
     46 H46        -5.3635    5.1067   56.4595 H       1  ZINC000461336108    0.0600
     47 H47        -5.2312    5.8861   54.3152 H       1  ZINC000461336108    0.0700
     48 H48        -6.6424    4.8876   53.8652 H       1  ZINC000461336108    0.0700
     49 H49        -0.2866    5.1942   50.6480 H       1  ZINC000461336108    0.1200
     50 H50        -1.4920    5.8904   51.7575 H       1  ZINC000461336108    0.1000
     51 H51        -1.1877    3.2730   53.7151 H       1  ZINC000461336108    0.1400
     52 H52         0.6160    3.0609   55.4995 H       1  ZINC000461336108    0.1500
     53 H53         2.6444    4.5360   55.1137 H       1  ZINC000461336108    0.1700
@<TRIPOS>BOND
     1     1     2    1
     2     1    28    1
     3     1    29    1
     4     1    30    1
     5     2     3    1
     6     2    10    1
     7     2     4    1
     8     4     5    2
     9     4     6   am
    10     6     7    1
    11     6     8    1
    12     7    31    1
    13     7    32    1
    14     7    33    1
    15     8     9    1
    16     8    34    1
    17     8    35    1
    18     9    10    1
    19     9    36    1
    20     9    37    1
    21    10    11    1
    22    11    21    1
    23    11    12    2
    24    12    13    1
    25    13    14    2
    26    14    15    1
    27    14    21    1
    28    15    16    1
    29    15    38    1
    30    15    39    1
    31    16    20    1
    32    16    17    1
    33    16    40    1
    34    17    18    1
    35    17    41    1
    36    17    42    1
    37    18    19    1
    38    18    43    1
    39    18    44    1
    40    19    20    1
    41    19    45    1
    42    19    46    1
    43    20    47    1
    44    20    48    1
    45    21    22    1
    46    22    23    1
    47    22    49    1
    48    22    50    1
    49    23    27    1
    50    23    24    2
    51    24    25    1
    52    24    51    1
    53    25    26    2
    54    25    52    1
    55    26    27    1
    56    26    53    1
@<TRIPOS>SUBSTRUCTURE
     1 ZINC000461336108        1 TEMP              0 ****  ****    0 ROOT


##########                                Name:    ZINC000291574087
##########                DOCK_Rotatable_Bonds:                   8
##########                         Heavy_Atoms:                  23
##########                    Molecular_Weight:             387.249
##########                DOCK_Rotatable_Bonds:                   8
##########                       Formal_Charge:          -0.0400007
##########                     HBond_Acceptors:                   6
##########                        HBond_Donors:                   2
##########                         Heavy_Atoms:                  23
##########                          Grid_Score:          -26.580936
##########                     Grid_vdw_energy:          -25.798534
##########                      Grid_es_energy:           -0.782403
##########           Internal_energy_repulsive:           25.639824

@<TRIPOS>MOLECULE
ZINC000291574087
 43 44 1 0 0
SMALL
USER_CHARGES


@<TRIPOS>ATOM
      1 C1         -6.0229    1.4092   51.1574 C.3     1  ZINC000291574087    0.0200
      2 O2         -7.3199    2.0066   51.1014 O.3     1  ZINC000291574087   -0.3700
      3 C3         -8.1218    1.7642   52.2591 C.3     1  ZINC000291574087    0.1400
      4 C4         -7.5467    2.5358   53.4485 C.3     1  ZINC000291574087   -0.1500
      5 C5         -8.1226    0.2671   52.5747 C.3     1  ZINC000291574087    0.0900
      6 N6         -9.1086   -0.0106   53.6220 N.am    1  ZINC000291574087   -0.6900
      7 C7        -10.2512   -0.6574   53.3176 C.2     1  ZINC000291574087    0.5100
      8 O8        -10.4639   -1.0084   52.1756 O.2     1  ZINC000291574087   -0.5100
      9 C9        -11.2554   -0.9421   54.3857 C.2     1  ZINC000291574087    0.5100
     10 O10       -11.9278   -0.0406   54.8425 O.2     1  ZINC000291574087   -0.4900
     11 N11       -11.4151   -2.2001   54.8423 N.am    1  ZINC000291574087   -0.6400
     12 C12       -12.3555   -2.4667   55.8425 C.ar    1  ZINC000291574087    0.1300
     13 C13       -13.6683   -2.7635   55.5019 C.ar    1  ZINC000291574087   -0.1000
     14 C14       -14.5952   -3.0271   56.4919 C.ar    1  ZINC000291574087   -0.0400
     15 C15       -16.0200   -3.3492   56.1219 C.3     1  ZINC000291574087   -0.1300
     16 C16       -14.2173   -2.9961   57.8223 C.ar    1  ZINC000291574087   -0.0900
     17 Br17      -15.4900   -3.3588   59.1731 Br      1  ZINC000291574087   -0.0300
     18 C18       -12.9099   -2.7007   58.1670 C.ar    1  ZINC000291574087   -0.1000
     19 C19       -11.9762   -2.4408   57.1811 C.ar    1  ZINC000291574087    0.0700
     20 F20       -10.6999   -2.1524   57.5172 F       1  ZINC000291574087   -0.1300
     21 C21        -9.5547    2.2302   51.9936 C.3     1  ZINC000291574087   -0.1900
     22 C22       -10.1573    3.2492   52.9628 C.3     1  ZINC000291574087   -0.1700
     23 C23        -9.7552    3.6811   51.5512 C.3     1  ZINC000291574087   -0.1600
     24 H24        -5.4771    1.6394   50.2423 H       1  ZINC000291574087    0.0900
     25 H25        -5.4777    1.8040   52.0147 H       1  ZINC000291574087    0.0400
     26 H26        -6.1246    0.3286   51.2576 H       1  ZINC000291574087    0.0500
     27 H27        -7.5461    3.6024   53.2236 H       1  ZINC000291574087    0.0700
     28 H28        -8.1584    2.3510   54.3315 H       1  ZINC000291574087    0.0800
     29 H29        -6.5259    2.2039   53.6376 H       1  ZINC000291574087    0.0700
     30 H30        -8.3796   -0.2936   51.6759 H       1  ZINC000291574087    0.0900
     31 H31        -7.1327   -0.0322   52.9191 H       1  ZINC000291574087    0.0800
     32 H32        -8.9390    0.2710   54.5347 H       1  ZINC000291574087    0.4200
     33 H33       -10.8780   -2.9205   54.4772 H       1  ZINC000291574087    0.4300
     34 H34       -13.9648   -2.7881   54.4637 H       1  ZINC000291574087    0.1600
     35 H35       -16.1263   -4.4258   55.9890 H       1  ZINC000291574087    0.0800
     36 H36       -16.6865   -3.0137   56.9165 H       1  ZINC000291574087    0.0800
     37 H37       -16.2779   -2.8412   55.1927 H       1  ZINC000291574087    0.0800
     38 H38       -12.6181   -2.6769   59.2065 H       1  ZINC000291574087    0.1500
     39 H39       -10.2231    1.4789   51.5730 H       1  ZINC000291574087    0.1100
     40 H40       -11.2223    3.1683   53.1804 H       1  ZINC000291574087    0.1000
     41 H41        -9.5329    3.5875   53.7897 H       1  ZINC000291574087    0.1000
     42 H42        -8.8663    4.3036   51.4494 H       1  ZINC000291574087    0.1000
     43 H43       -10.5558    3.8843   50.8400 H       1  ZINC000291574087    0.1000
@<TRIPOS>BOND
     1     1     2    1
     2     1    24    1
     3     1    25    1
     4     1    26    1
     5     2     3    1
     6     3     4    1
     7     3     5    1
     8     3    21    1
     9     4    27    1
    10     4    28    1
    11     4    29    1
    12     5     6    1
    13     5    30    1
    14     5    31    1
    15     6     7   am
    16     6    32    1
    17     7     8    2
    18     7     9    1
    19     9    10    2
    20     9    11   am
    21    11    12    1
    22    11    33    1
    23    12    19   ar
    24    12    13   ar
    25    13    14   ar
    26    13    34    1
    27    14    15    1
    28    14    16   ar
    29    15    35    1
    30    15    36    1
    31    15    37    1
    32    16    17    1
    33    16    18   ar
    34    18    19   ar
    35    18    38    1
    36    19    20    1
    37    21    23    1
    38    21    22    1
    39    21    39    1
    40    22    23    1
    41    22    40    1
    42    22    41    1
    43    23    42    1
    44    23    43    1
@<TRIPOS>SUBSTRUCTURE
     1 ZINC000291574087        1 TEMP              0 ****  ****    0 ROOT


##########                                Name:    ZINC000894043060
##########                DOCK_Rotatable_Bonds:                  11
##########                         Heavy_Atoms:                  26
##########                    Molecular_Weight:             396.812
##########                DOCK_Rotatable_Bonds:                  11
##########                       Formal_Charge:          -0.0199999
##########                     HBond_Acceptors:                   9
##########                        HBond_Donors:                   2
##########                         Heavy_Atoms:                  26
##########                          Grid_Score:          -26.580013
##########                     Grid_vdw_energy:          -26.216059
##########                      Grid_es_energy:           -0.363955
##########           Internal_energy_repulsive:           12.316491

@<TRIPOS>MOLECULE
ZINC000894043060
 47 47 1 0 0
SMALL
USER_CHARGES


@<TRIPOS>ATOM
      1 C1        -13.4193    0.9799   62.3626 C.3     1  ZINC000894043060   -0.1700
      2 C2        -14.4793    0.2217   61.5608 C.3     1  ZINC000894043060    0.1000
      3 H3        -14.8374   -0.6270   62.1435 H       1  ZINC000894043060    0.1100
      4 N4        -13.8924   -0.2592   60.3077 N.am    1  ZINC000894043060   -0.7300
      5 C5        -13.4565   -1.5309   60.2121 C.2     1  ZINC000894043060    0.5200
      6 O6        -13.5488   -2.2768   61.1640 O.2     1  ZINC000894043060   -0.5200
      7 C7        -12.8544   -2.0261   58.9223 C.3     1  ZINC000894043060   -0.1400
      8 C8        -11.4989   -1.3521   58.7004 C.3     1  ZINC000894043060   -0.0200
      9 C9        -10.3920   -2.2245   59.2959 C.3     1  ZINC000894043060   -0.1400
     10 C10        -9.3684   -1.3470   59.9693 C.2     1  ZINC000894043060    0.5200
     11 O11        -8.2903   -1.1614   59.4458 O.2     1  ZINC000894043060   -0.5200
     12 N12        -9.6512   -0.7685   61.1534 N.am    1  ZINC000894043060   -0.7300
     13 C13        -8.6568    0.0858   61.8071 C.3     1  ZINC000894043060    0.1000
     14 H14        -7.6570   -0.2160   61.4951 H       1  ZINC000894043060    0.1200
     15 C15        -8.8967    1.5438   61.4096 C.3     1  ZINC000894043060   -0.1700
     16 C16        -8.7818   -0.0560   63.3254 C.3     1  ZINC000894043060    0.2600
     17 F17        -7.8387    0.7674   63.9499 F       1  ZINC000894043060   -0.1900
     18 F18       -10.0681    0.3221   63.7248 F       1  ZINC000894043060   -0.2000
     19 C19       -11.2606   -1.1774   57.2227 C.ar    1  ZINC000894043060   -0.0600
     20 C20       -10.7605    0.0175   56.7400 C.ar    1  ZINC000894043060   -0.1200
     21 C21       -10.5417    0.1784   55.3848 C.ar    1  ZINC000894043060   -0.1200
     22 C22       -10.8235   -0.8569   54.5112 C.ar    1  ZINC000894043060   -0.0400
     23 Cl23      -10.5486   -0.6559   52.8089 Cl      1  ZINC000894043060   -0.0800
     24 C24       -11.3241   -2.0526   54.9949 C.ar    1  ZINC000894043060   -0.1100
     25 C25       -11.5371   -2.2142   56.3510 C.ar    1  ZINC000894043060   -0.0400
     26 C26       -15.6495    1.1571   61.2501 C.3     1  ZINC000894043060    0.2600
     27 F27       -16.6587    0.4406   60.5981 F       1  ZINC000894043060   -0.2000
     28 F28       -16.1510    1.6888   62.4430 F       1  ZINC000894043060   -0.1900
     29 H29       -13.0612    1.8286   61.7799 H       1  ZINC000894043060    0.0600
     30 H30       -13.8560    1.3376   63.2949 H       1  ZINC000894043060    0.0800
     31 H31       -12.5857    0.3135   62.5840 H       1  ZINC000894043060    0.0800
     32 H32       -13.8175    0.3377   59.5467 H       1  ZINC000894043060    0.4000
     33 H33       -12.7187   -3.1062   58.9759 H       1  ZINC000894043060    0.1000
     34 H34       -13.5203   -1.7842   58.0940 H       1  ZINC000894043060    0.1000
     35 H35       -11.4942   -0.3767   59.1870 H       1  ZINC000894043060    0.1000
     36 H36       -10.8223   -2.9081   60.0278 H       1  ZINC000894043060    0.1000
     37 H37        -9.9135   -2.7969   58.5014 H       1  ZINC000894043060    0.1000
     38 H38       -10.5130   -0.9179   61.5727 H       1  ZINC000894043060    0.4000
     39 H39        -9.8965    1.8455   61.7217 H       1  ZINC000894043060    0.0700
     40 H40        -8.1568    2.1794   61.8962 H       1  ZINC000894043060    0.0800
     41 H41        -8.8076    1.6448   60.3280 H       1  ZINC000894043060    0.0700
     42 H42        -8.6033   -1.0931   63.6094 H       1  ZINC000894043060    0.1200
     43 H43       -10.5409    0.8256   57.4219 H       1  ZINC000894043060    0.1200
     44 H44       -10.1514    1.1120   55.0077 H       1  ZINC000894043060    0.1300
     45 H45       -11.5445   -2.8609   54.3134 H       1  ZINC000894043060    0.1300
     46 H46       -11.9275   -3.1476   56.7287 H       1  ZINC000894043060    0.1300
     47 H47       -15.3059    1.9676   60.6073 H       1  ZINC000894043060    0.1100
@<TRIPOS>BOND
     1     1     2    1
     2     1    29    1
     3     1    30    1
     4     1    31    1
     5     2     3    1
     6     2     4    1
     7     2    26    1
     8     4     5   am
     9     4    32    1
    10     5     6    2
    11     5     7    1
    12     7     8    1
    13     7    33    1
    14     7    34    1
    15     8     9    1
    16     8    19    1
    17     8    35    1
    18     9    10    1
    19     9    36    1
    20     9    37    1
    21    10    11    2
    22    10    12   am
    23    12    13    1
    24    12    38    1
    25    13    14    1
    26    13    15    1
    27    13    16    1
    28    15    39    1
    29    15    40    1
    30    15    41    1
    31    16    17    1
    32    16    18    1
    33    16    42    1
    34    19    25   ar
    35    19    20   ar
    36    20    21   ar
    37    20    43    1
    38    21    22   ar
    39    21    44    1
    40    22    23    1
    41    22    24   ar
    42    24    25   ar
    43    24    45    1
    44    25    46    1
    45    26    27    1
    46    26    28    1
    47    26    47    1
@<TRIPOS>SUBSTRUCTURE
     1 ZINC000894043060        1 TEMP              0 ****  ****    0 ROOT


##########                                Name:    ZINC000012979878
##########                DOCK_Rotatable_Bonds:                   7
##########                         Heavy_Atoms:                  26
##########                    Molecular_Weight:             388.874
##########                DOCK_Rotatable_Bonds:                   7
##########                       Formal_Charge:          -0.0100003
##########                     HBond_Acceptors:                   7
##########                        HBond_Donors:                   1
##########                         Heavy_Atoms:                  26
##########                          Grid_Score:          -26.550325
##########                     Grid_vdw_energy:          -25.875601
##########                      Grid_es_energy:           -0.674725
##########           Internal_energy_repulsive:           10.871942

@<TRIPOS>MOLECULE
ZINC000012979878
 43 45 1 0 0
SMALL
USER_CHARGES


@<TRIPOS>ATOM
      1 C1         -0.5080    2.8669   47.4360 C.3     1  <0>         0.0300
      2 O2         -1.7747    2.7454   48.0862 O.3     1  <0>        -0.3100
      3 C3         -1.8016    2.9538   49.4288 C.ar    1  <0>         0.1500
      4 C4         -0.6970    3.4975   50.0692 C.ar    1  <0>        -0.2200
      5 C5         -0.7225    3.7097   51.4348 C.ar    1  <0>        -0.0600
      6 C6         -1.8472    3.3818   52.1663 C.ar    1  <0>        -0.1800
      7 C7         -2.9562    2.8371   51.5304 C.ar    1  <0>         0.1800
      8 N8         -4.0949    2.5051   52.2710 N.am    1  <0>        -0.6700
      9 C9         -4.8415    3.4773   52.8313 C.2     1  <0>         0.6000
     10 O10        -4.5246    4.6440   52.6926 O.2     1  <0>        -0.4900
     11 C11        -6.0357    3.1292   53.6080 C.2     1  <0>        -0.3000
     12 C12        -7.2071    2.6618   53.1079 C.2     1  <0>         0.1600
     13 C13        -7.4357    2.4331   51.6359 C.3     1  <0>        -0.0900
     14 N14        -8.1216    2.4258   54.0148 N.2     1  <0>        -0.4500
     15 C15        -7.8097    2.6597   55.2490 C.2     1  <0>         0.0600
     16 C16        -8.7299    2.4483   56.4236 C.3     1  <0>         0.1300
     17 O17        -8.3413    1.2664   57.1265 O.3     1  <0>        -0.3000
     18 C18        -8.9430    1.0340   58.3229 C.ar    1  <0>         0.1300
     19 C19        -8.2139    0.4986   59.3746 C.ar    1  <0>        -0.2000
     20 C20        -8.8273    0.2631   60.5898 C.ar    1  <0>        -0.0700
     21 C21       -10.1681    0.5605   60.7582 C.ar    1  <0>        -0.0700
     22 Cl22      -10.9368    0.2632   62.2861 Cl      1  <0>        -0.0700
     23 C23       -10.8968    1.0950   59.7105 C.ar    1  <0>        -0.0700
     24 C24       -10.2856    1.3373   58.4955 C.ar    1  <0>        -0.1300
     25 S25        -6.2039    3.2356   55.3588 S.3     1  <0>         0.2000
     26 C26        -2.9343    2.6287   50.1586 C.ar    1  <0>        -0.1500
     27 H27        -0.1188    3.8742   47.5839 H       1  <0>         0.0600
     28 H28         0.1883    2.1426   47.8587 H       1  <0>         0.0600
     29 H29        -0.6273    2.6763   46.3694 H       1  <0>         0.1000
     30 H30         0.1839    3.7549   49.4998 H       1  <0>         0.1300
     31 H31         0.1387    4.1323   51.9307 H       1  <0>         0.1300
     32 H32        -1.8646    3.5486   53.2332 H       1  <0>         0.1300
     33 H33        -4.3474    1.5751   52.3817 H       1  <0>         0.4100
     34 H34        -7.1475    1.4141   51.3775 H       1  <0>         0.0900
     35 H35        -8.4905    2.5820   51.4046 H       1  <0>         0.0800
     36 H36        -6.8347    3.1376   51.0611 H       1  <0>         0.1000
     37 H37        -8.6674    3.3062   57.0930 H       1  <0>         0.0900
     38 H38        -9.7543    2.3390   56.0675 H       1  <0>         0.1000
     39 H39        -7.1676    0.2655   59.2433 H       1  <0>         0.1400
     40 H40        -8.2600   -0.1537   61.4088 H       1  <0>         0.1400
     41 H41       -11.9432    1.3269   59.8440 H       1  <0>         0.1400
     42 H42       -10.8548    1.7545   57.6780 H       1  <0>         0.1400
     43 H43        -3.7950    2.2058   49.6619 H       1  <0>         0.1400
@<TRIPOS>BOND
     1     1     2    1
     2     1    27    1
     3     1    28    1
     4     1    29    1
     5     2     3    1
     6     3    26   ar
     7     3     4   ar
     8     4     5   ar
     9     4    30    1
    10     5     6   ar
    11     5    31    1
    12     6     7   ar
    13     6    32    1
    14     7     8    1
    15     7    26   ar
    16     8     9   am
    17     8    33    1
    18     9    10    2
    19     9    11    1
    20    11    25    1
    21    11    12    2
    22    12    13    1
    23    12    14    1
    24    13    34    1
    25    13    35    1
    26    13    36    1
    27    14    15    2
    28    15    16    1
    29    15    25    1
    30    16    17    1
    31    16    37    1
    32    16    38    1
    33    17    18    1
    34    18    24   ar
    35    18    19   ar
    36    19    20   ar
    37    19    39    1
    38    20    21   ar
    39    20    40    1
    40    21    22    1
    41    21    23   ar
    42    23    24   ar
    43    23    41    1
    44    24    42    1
    45    26    43    1
@<TRIPOS>SUBSTRUCTURE
     1 <0>         1 TEMP              0 ****  ****    0 ROOT


##########                                Name:    ZINC000277085192
##########                DOCK_Rotatable_Bonds:                   4
##########                         Heavy_Atoms:                  23
##########                    Molecular_Weight:             335.747
##########                DOCK_Rotatable_Bonds:                   4
##########                       Formal_Charge:         5.96046e-08
##########                     HBond_Acceptors:                   8
##########                        HBond_Donors:                   2
##########                         Heavy_Atoms:                  23
##########                          Grid_Score:          -26.539022
##########                     Grid_vdw_energy:          -26.164770
##########                      Grid_es_energy:           -0.374252
##########           Internal_energy_repulsive:            6.537064

@<TRIPOS>MOLECULE
ZINC000277085192
 37 39 1 0 0
SMALL
USER_CHARGES


@<TRIPOS>ATOM
      1 O1        -14.8521   -1.0630   58.4911 O.2     1  ZINC000277085192   -0.5000
      2 C2        -15.0369   -2.2139   58.8266 C.2     1  ZINC000277085192    0.5000
      3 C3        -16.1885   -2.9926   58.2447 C.3     1  ZINC000277085192    0.1100
      4 N4        -15.7399   -3.7053   57.0460 N.am    1  ZINC000277085192   -0.6000
      5 C5        -14.9975   -4.9593   57.1873 C.3     1  ZINC000277085192    0.1100
      6 C6        -15.3891   -5.9155   56.0584 C.3     1  ZINC000277085192   -0.1600
      7 C7        -15.3690   -5.1696   54.7479 C.2     1  ZINC000277085192    0.5200
      8 O8        -15.0330   -5.7384   53.7314 O.2     1  ZINC000277085192   -0.5000
      9 N9        -15.7248   -3.8725   54.7072 N.am    1  ZINC000277085192   -0.6700
     10 C10       -16.0201   -3.2021   55.8328 C.2     1  ZINC000277085192    0.7200
     11 O11       -16.5460   -2.1094   55.7518 O.2     1  ZINC000277085192   -0.5500
     12 N12       -14.2091   -2.7980   59.7154 N.am    1  ZINC000277085192   -0.6700
     13 C13       -13.1392   -2.0746   60.2560 C.ar    1  ZINC000277085192    0.1400
     14 C14       -11.8444   -2.3576   59.8625 C.ar    1  ZINC000277085192   -0.0400
     15 C15       -10.7714   -1.6332   60.4045 C.ar    1  ZINC000277085192   -0.1700
     16 C16       -11.0251   -0.6293   61.3397 C.ar    1  ZINC000277085192   -0.0500
     17 C17       -12.3239   -0.3551   61.7250 C.ar    1  ZINC000277085192   -0.0900
     18 C18       -13.3795   -1.0669   61.1854 C.ar    1  ZINC000277085192   -0.0300
     19 Cl19      -15.0059   -0.7124   61.6782 Cl      1  ZINC000277085192   -0.0500
     20 C20        -9.7224    0.0009   61.7715 C.3     1  ZINC000277085192   -0.0800
     21 C21        -8.6145   -0.7256   60.9966 C.3     1  ZINC000277085192   -0.1700
     22 C22        -9.3270   -1.7491   60.1464 C.2     1  ZINC000277085192    0.4100
     23 O23        -8.8009   -2.5307   59.3829 O.2     1  ZINC000277085192   -0.4300
     24 H24       -16.5501   -3.7108   58.9806 H       1  ZINC000277085192    0.1300
     25 H25       -16.9936   -2.3071   57.9799 H       1  ZINC000277085192    0.1200
     26 H26       -13.9279   -4.7559   57.1362 H       1  ZINC000277085192    0.0800
     27 H27       -15.2347   -5.4155   58.1484 H       1  ZINC000277085192    0.1000
     28 H28       -14.6793   -6.7417   56.0181 H       1  ZINC000277085192    0.1300
     29 H29       -16.3911   -6.3037   56.2412 H       1  ZINC000277085192    0.1200
     30 H30       -15.7720   -3.4165   53.8524 H       1  ZINC000277085192    0.4300
     31 H31       -14.3547   -3.7196   59.9806 H       1  ZINC000277085192    0.4200
     32 H32       -11.6586   -3.1367   59.1380 H       1  ZINC000277085192    0.1500
     33 H33       -12.5158    0.4226   62.4494 H       1  ZINC000277085192    0.1500
     34 H34        -9.7192    1.0621   61.5225 H       1  ZINC000277085192    0.1000
     35 H35        -9.5790   -0.1331   62.8437 H       1  ZINC000277085192    0.1000
     36 H36        -8.0716   -0.0221   60.3653 H       1  ZINC000277085192    0.1100
     37 H37        -7.9312   -1.2187   61.6881 H       1  ZINC000277085192    0.1100
@<TRIPOS>BOND
     1     1     2    2
     2     2     3    1
     3     2    12   am
     4     3     4    1
     5     3    24    1
     6     3    25    1
     7     4    10   am
     8     4     5    1
     9     5     6    1
    10     5    26    1
    11     5    27    1
    12     6     7    1
    13     6    28    1
    14     6    29    1
    15     7     8    2
    16     7     9   am
    17     9    10   am
    18     9    30    1
    19    10    11    2
    20    12    13    1
    21    12    31    1
    22    13    18   ar
    23    13    14   ar
    24    14    15   ar
    25    14    32    1
    26    15    22    1
    27    15    16   ar
    28    16    17   ar
    29    16    20    1
    30    17    18   ar
    31    17    33    1
    32    18    19    1
    33    20    21    1
    34    20    34    1
    35    20    35    1
    36    21    22    1
    37    21    36    1
    38    21    37    1
    39    22    23    2
@<TRIPOS>SUBSTRUCTURE
     1 ZINC000277085192        1 TEMP              0 ****  ****    0 ROOT


##########                                Name:    ZINC000298969660
##########                DOCK_Rotatable_Bonds:                  10
##########                         Heavy_Atoms:                  29
##########                    Molecular_Weight:             397.474
##########                DOCK_Rotatable_Bonds:                  10
##########                       Formal_Charge:          -0.0100008
##########                     HBond_Acceptors:                   7
##########                        HBond_Donors:                   2
##########                         Heavy_Atoms:                  29
##########                          Grid_Score:          -26.530251
##########                     Grid_vdw_energy:          -25.046055
##########                      Grid_es_energy:           -1.484196
##########           Internal_energy_repulsive:           20.651617

@<TRIPOS>MOLECULE
ZINC000298969660
 56 58 1 0 0
SMALL
USER_CHARGES


@<TRIPOS>ATOM
      1 C1         -7.0528    2.3859   54.6866 C.3     1  ZINC000298969660    0.0800
      2 N2         -8.1046    2.6690   55.6663 N.am    1  ZINC000298969660   -0.6300
      3 C3         -9.2164    3.5545   55.3119 C.3     1  ZINC000298969660    0.1400
      4 C4        -10.1896    2.8098   54.3959 C.3     1  ZINC000298969660    0.0700
      5 H5        -11.1119    3.3831   54.3025 H       1  ZINC000298969660    0.0500
      6 C6        -10.5014    1.4346   54.9924 C.3     1  ZINC000298969660   -0.1500
      7 C7        -11.4281    0.6721   54.0406 C.3     1  ZINC000298969660   -0.1200
      8 C8        -10.7595    0.5715   52.6661 C.3     1  ZINC000298969660   -0.1600
      9 C9        -10.4377    1.9799   52.1595 C.3     1  ZINC000298969660    0.0600
     10 O10        -9.5981    2.6450   53.1055 O.3     1  ZINC000298969660   -0.3600
     11 C11        -8.0492    2.1146   56.8935 C.2     1  ZINC000298969660    0.7100
     12 O12        -7.1256    1.3808   57.1880 O.2     1  ZINC000298969660   -0.5400
     13 N13        -9.0177    2.3736   57.7943 N.am    1  ZINC000298969660   -0.6900
     14 C14        -8.9602    1.7980   59.0685 C.ar    1  ZINC000298969660    0.2000
     15 C15        -8.5709    2.5631   60.1602 C.ar    1  ZINC000298969660   -0.1800
     16 C16        -8.5136    1.9947   61.4182 C.ar    1  ZINC000298969660   -0.0600
     17 C17        -8.8435    0.6645   61.5937 C.ar    1  ZINC000298969660   -0.2300
     18 C18        -9.2333   -0.1050   60.5062 C.ar    1  ZINC000298969660    0.1500
     19 O19        -9.5571   -1.4133   60.6802 O.3     1  ZINC000298969660   -0.2900
     20 C20       -10.9370   -1.7175   60.8934 C.3     1  ZINC000298969660    0.0400
     21 C21       -11.5474   -2.2105   59.6068 C.2     1  ZINC000298969660    0.5100
     22 O22       -10.9889   -3.0726   58.9619 O.2     1  ZINC000298969660   -0.4900
     23 N23       -12.7138   -1.6933   59.1727 N.am    1  ZINC000298969660   -0.6700
     24 C24       -13.2806   -2.1510   57.9780 C.ar    1  ZINC000298969660    0.1400
     25 C25       -14.5992   -2.5861   57.9553 C.ar    1  ZINC000298969660   -0.1400
     26 C26       -15.1556   -3.0373   56.7745 C.ar    1  ZINC000298969660   -0.1000
     27 C27       -14.4011   -3.0567   55.6159 C.ar    1  ZINC000298969660   -0.1300
     28 C28       -13.0877   -2.6245   55.6353 C.ar    1  ZINC000298969660   -0.1000
     29 C29       -12.5273   -2.1659   56.8115 C.ar    1  ZINC000298969660   -0.1200
     30 C30        -9.2974    0.4631   59.2438 C.ar    1  ZINC000298969660   -0.1500
     31 H31        -6.2567    3.1241   54.7846 H       1  ZINC000298969660    0.0600
     32 H32        -6.6484    1.3896   54.8653 H       1  ZINC000298969660    0.0700
     33 H33        -7.4706    2.4335   53.6810 H       1  ZINC000298969660    0.0800
     34 H34        -9.7363    3.8656   56.2182 H       1  ZINC000298969660    0.1000
     35 H35        -8.8308    4.4331   54.7948 H       1  ZINC000298969660    0.0900
     36 H36        -9.5748    0.8760   55.1239 H       1  ZINC000298969660    0.0800
     37 H37       -10.9929    1.5591   55.9573 H       1  ZINC000298969660    0.0700
     38 H38       -11.6092   -0.3290   54.4320 H       1  ZINC000298969660    0.0700
     39 H39       -12.3742    1.2054   53.9475 H       1  ZINC000298969660    0.0600
     40 H40        -9.8380   -0.0046   52.7506 H       1  ZINC000298969660    0.0700
     41 H41       -11.4355    0.0787   51.9673 H       1  ZINC000298969660    0.0700
     42 H42        -9.9231    1.9127   51.2010 H       1  ZINC000298969660    0.0900
     43 H43       -11.3633    2.5423   52.0366 H       1  ZINC000298969660    0.0400
     44 H44        -9.7546    2.9591   57.5594 H       1  ZINC000298969660    0.4100
     45 H45        -8.3125    3.6032   60.0257 H       1  ZINC000298969660    0.1300
     46 H46        -8.2100    2.5910   62.2659 H       1  ZINC000298969660    0.1300
     47 H47        -8.7978    0.2228   62.5782 H       1  ZINC000298969660    0.1300
     48 H48       -11.0250   -2.4904   61.6569 H       1  ZINC000298969660    0.1000
     49 H49       -11.4601   -0.8198   61.2232 H       1  ZINC000298969660    0.1000
     50 H50       -13.1604   -1.0038   59.6885 H       1  ZINC000298969660    0.4100
     51 H51       -15.1887   -2.5719   58.8601 H       1  ZINC000298969660    0.1300
     52 H52       -16.1810   -3.3758   56.7562 H       1  ZINC000298969660    0.1300
     53 H53       -14.8384   -3.4103   54.6939 H       1  ZINC000298969660    0.1200
     54 H54       -12.5008   -2.6415   54.7289 H       1  ZINC000298969660    0.1300
     55 H55       -11.5015   -1.8285   56.8260 H       1  ZINC000298969660    0.1300
     56 H56        -9.6005   -0.1340   58.3965 H       1  ZINC000298969660    0.1500
@<TRIPOS>BOND
     1     1     2    1
     2     1    31    1
     3     1    32    1
     4     1    33    1
     5     2     3    1
     6     2    11   am
     7     3     4    1
     8     3    34    1
     9     3    35    1
    10     4     5    1
    11     4    10    1
    12     4     6    1
    13     6     7    1
    14     6    36    1
    15     6    37    1
    16     7     8    1
    17     7    38    1
    18     7    39    1
    19     8     9    1
    20     8    40    1
    21     8    41    1
    22     9    10    1
    23     9    42    1
    24     9    43    1
    25    11    12    2
    26    11    13   am
    27    13    14    1
    28    13    44    1
    29    14    30   ar
    30    14    15   ar
    31    15    16   ar
    32    15    45    1
    33    16    17   ar
    34    16    46    1
    35    17    18   ar
    36    17    47    1
    37    18    19    1
    38    18    30   ar
    39    19    20    1
    40    20    21    1
    41    20    48    1
    42    20    49    1
    43    21    22    2
    44    21    23   am
    45    23    24    1
    46    23    50    1
    47    24    29   ar
    48    24    25   ar
    49    25    26   ar
    50    25    51    1
    51    26    27   ar
    52    26    52    1
    53    27    28   ar
    54    27    53    1
    55    28    29   ar
    56    28    54    1
    57    29    55    1
    58    30    56    1
@<TRIPOS>SUBSTRUCTURE
     1 ZINC000298969660        1 TEMP              0 ****  ****    0 ROOT


##########                                Name:    ZINC000550011575
##########                DOCK_Rotatable_Bonds:                   6
##########                         Heavy_Atoms:                  28
##########                    Molecular_Weight:             423.935
##########                DOCK_Rotatable_Bonds:                   6
##########                       Formal_Charge:          -0.0100002
##########                     HBond_Acceptors:                   7
##########                        HBond_Donors:                   0
##########                         Heavy_Atoms:                  28
##########                          Grid_Score:          -26.526213
##########                     Grid_vdw_energy:          -26.005095
##########                      Grid_es_energy:           -0.521117
##########           Internal_energy_repulsive:           36.980183

@<TRIPOS>MOLECULE
ZINC000550011575
 51 53 1 0 0
SMALL
USER_CHARGES


@<TRIPOS>ATOM
      1 C1        -13.1045    1.3733   55.3170 C.3     1  ZINC000550011575   -0.1400
      2 C2        -12.8306   -0.0807   54.9277 C.3     1  ZINC000550011575   -0.6100
      3 H3        -13.7148   -0.5014   54.4489 H       1  ZINC000550011575    0.1500
      4 C4        -11.6676   -0.1341   53.9707 C.2     1  ZINC000550011575    0.5400
      5 O5        -10.5611   -0.4202   54.3764 O.2     1  ZINC000550011575   -0.5100
      6 N6        -11.8573    0.1362   52.6640 N.am    1  ZINC000550011575   -0.6000
      7 C7        -13.1937    0.4836   52.1743 C.3     1  ZINC000550011575    0.0600
      8 C8        -10.7272    0.0826   51.7335 C.3     1  ZINC000550011575    0.1500
      9 C9         -9.8003    1.2403   52.0014 C.ar    1  ZINC000550011575   -0.1500
     10 C10        -8.6022    1.0296   52.6618 C.ar    1  ZINC000550011575    0.1400
     11 F11        -8.2632   -0.2139   53.0667 F       1  ZINC000550011575   -0.1100
     12 C12        -7.7511    2.0942   52.9069 C.ar    1  ZINC000550011575   -0.1500
     13 C13        -8.0980    3.3659   52.4922 C.ar    1  ZINC000550011575   -0.0700
     14 C14        -9.2946    3.5763   51.8325 C.ar    1  ZINC000550011575   -0.1300
     15 C15       -10.1436    2.5131   51.5822 C.ar    1  ZINC000550011575    0.0000
     16 Cl16      -11.6456    2.7783   50.7532 Cl      1  ZINC000550011575   -0.0500
     17 S17       -12.4342   -1.0406   56.4151 S.o2    1  ZINC000550011575    2.4500
     18 O18       -11.8760   -2.2848   56.0155 O.2     1  ZINC000550011575   -0.9200
     19 O19       -11.7076   -0.2096   57.3099 O.2     1  ZINC000550011575   -0.9100
     20 C20       -14.0799   -1.3436   57.1152 C.3     1  ZINC000550011575   -0.5300
     21 H21       -14.7802   -0.6086   56.7184 H       1  ZINC000550011575    0.1500
     22 C22       -14.0138   -1.2069   58.6349 C.3     1  ZINC000550011575   -0.1100
     23 C23       -15.3502   -1.6759   59.2219 C.3     1  ZINC000550011575   -0.1100
     24 C24       -15.4523   -3.1889   59.0394 C.3     1  ZINC000550011575   -0.0900
     25 C25       -15.1761   -3.5693   57.6083 C.ar    1  ZINC000550011575   -0.0600
     26 C26       -15.5885   -4.8248   57.1818 C.ar    1  ZINC000550011575   -0.1200
     27 C27       -15.3598   -5.2346   55.8843 C.ar    1  ZINC000550011575   -0.1100
     28 C28       -14.7142   -4.3896   55.0013 C.ar    1  ZINC000550011575   -0.1100
     29 C29       -14.3057   -3.1408   55.4226 C.ar    1  ZINC000550011575   -0.1500
     30 C30       -14.5379   -2.7254   56.7277 C.ar    1  ZINC000550011575   -0.0800
     31 H31       -14.0395    1.4302   55.8744 H       1  ZINC000550011575    0.0900
     32 H32       -12.2884    1.7431   55.9378 H       1  ZINC000550011575    0.0900
     33 H33       -13.1807    1.9824   54.4164 H       1  ZINC000550011575    0.0800
     34 H34       -13.3318    1.5633   52.2303 H       1  ZINC000550011575    0.0700
     35 H35       -13.2975    0.1571   51.1396 H       1  ZINC000550011575    0.0800
     36 H36       -13.9457   -0.0114   52.7887 H       1  ZINC000550011575    0.0700
     37 H37       -10.1874   -0.8544   51.8710 H       1  ZINC000550011575    0.1000
     38 H38       -11.0963    0.1422   50.7096 H       1  ZINC000550011575    0.1100
     39 H39        -6.8163    1.9306   53.4224 H       1  ZINC000550011575    0.1500
     40 H40        -7.4341    4.1959   52.6838 H       1  ZINC000550011575    0.1500
     41 H41        -9.5649    4.5706   51.5091 H       1  ZINC000550011575    0.1400
     42 H42       -13.2048   -1.8251   59.0242 H       1  ZINC000550011575    0.0800
     43 H43       -13.8410   -0.1644   58.9025 H       1  ZINC000550011575    0.0900
     44 H44       -15.3913   -1.4307   60.2832 H       1  ZINC000550011575    0.0800
     45 H45       -16.1725   -1.1868   58.6995 H       1  ZINC000550011575    0.0700
     46 H46       -14.7264   -3.6790   59.6881 H       1  ZINC000550011575    0.0800
     47 H47       -16.4556   -3.5168   59.3113 H       1  ZINC000550011575    0.0800
     48 H48       -16.0922   -5.4859   57.8714 H       1  ZINC000550011575    0.1300
     49 H49       -15.6839   -6.2125   55.5598 H       1  ZINC000550011575    0.1300
     50 H50       -14.5297   -4.7059   53.9853 H       1  ZINC000550011575    0.1300
     51 H51       -13.8008   -2.4814   54.7323 H       1  ZINC000550011575    0.1700
@<TRIPOS>BOND
     1     1     2    1
     2     1    31    1
     3     1    32    1
     4     1    33    1
     5     2     3    1
     6     2     4    1
     7     2    17    1
     8     4     5    2
     9     4     6   am
    10     6     7    1
    11     6     8    1
    12     7    34    1
    13     7    35    1
    14     7    36    1
    15     8     9    1
    16     8    37    1
    17     8    38    1
    18     9    15   ar
    19     9    10   ar
    20    10    11    1
    21    10    12   ar
    22    12    13   ar
    23    12    39    1
    24    13    14   ar
    25    13    40    1
    26    14    15   ar
    27    14    41    1
    28    15    16    1
    29    17    18    2
    30    17    19    2
    31    17    20    1
    32    20    21    1
    33    20    30    1
    34    20    22    1
    35    22    23    1
    36    22    42    1
    37    22    43    1
    38    23    24    1
    39    23    44    1
    40    23    45    1
    41    24    25    1
    42    24    46    1
    43    24    47    1
    44    25    30   ar
    45    25    26   ar
    46    26    27   ar
    47    26    48    1
    48    27    28   ar
    49    27    49    1
    50    28    29   ar
    51    28    50    1
    52    29    30   ar
    53    29    51    1
@<TRIPOS>SUBSTRUCTURE
     1 ZINC000550011575        1 TEMP              0 ****  ****    0 ROOT


##########                                Name:    ZINC001625935330
##########                DOCK_Rotatable_Bonds:                   5
##########                         Heavy_Atoms:                  25
##########                    Molecular_Weight:             327.385
##########                DOCK_Rotatable_Bonds:                   5
##########                       Formal_Charge:           0.0199995
##########                     HBond_Acceptors:                   4
##########                        HBond_Donors:                   1
##########                         Heavy_Atoms:                  25
##########                          Grid_Score:          -26.507923
##########                     Grid_vdw_energy:          -27.010649
##########                      Grid_es_energy:            0.502726
##########           Internal_energy_repulsive:            7.662918

@<TRIPOS>MOLECULE
ZINC001625935330
 42 44 1 0 0
SMALL
USER_CHARGES


@<TRIPOS>ATOM
      1 C1         -9.3431    3.5911   58.0363 C.3     1  ZINC001625935330   -0.1600
      2 C2         -8.8321    2.3092   57.3755 C.3     1  ZINC001625935330    0.1800
      3 H3         -9.3216    2.1779   56.4105 H       1  ZINC001625935330    0.1000
      4 N4         -7.3835    2.4051   57.1792 N.am    1  ZINC001625935330   -0.7100
      5 C5         -6.8901    2.8368   56.0017 C.2     1  ZINC001625935330    0.5800
      6 O6         -7.6467    3.1451   55.1022 O.2     1  ZINC001625935330   -0.5300
      7 C7         -5.4250    2.9355   55.8038 C.ar    1  ZINC001625935330    0.0800
      8 C8         -4.9107    3.0570   54.5175 C.ar    1  ZINC001625935330   -0.1000
      9 C9         -3.5264    3.1495   54.3489 C.ar    1  ZINC001625935330    0.0000
     10 C10        -2.9313    3.2809   52.9961 C.ar    1  ZINC001625935330   -0.0600
     11 C11        -1.7340    3.9726   52.8230 C.ar    1  ZINC001625935330   -0.1000
     12 C12        -1.1847    4.0912   51.5624 C.ar    1  ZINC001625935330   -0.1200
     13 C13        -1.8204    3.5251   50.4721 C.ar    1  ZINC001625935330   -0.1100
     14 C14        -3.0091    2.8374   50.6381 C.ar    1  ZINC001625935330   -0.1200
     15 C15        -3.5646    2.7081   51.8949 C.ar    1  ZINC001625935330   -0.1000
     16 C16        -2.7178    3.1153   55.4875 C.ar    1  ZINC001625935330   -0.1400
     17 C17        -3.3092    2.9922   56.7323 C.ar    1  ZINC001625935330    0.1100
     18 N18        -4.6163    2.9126   56.8570 N.ar    1  ZINC001625935330   -0.4600
     19 C19        -9.1421    1.1297   58.2607 C.ar    1  ZINC001625935330   -0.0900
     20 C20       -10.0006    0.1401   57.8165 C.ar    1  ZINC001625935330   -0.0800
     21 C21       -10.2906   -0.9464   58.6229 C.ar    1  ZINC001625935330   -0.1100
     22 C22        -9.7243   -1.0497   59.8762 C.ar    1  ZINC001625935330   -0.0700
     23 C23        -8.8564   -0.0546   60.3309 C.ar    1  ZINC001625935330   -0.0200
     24 C24        -8.2646   -0.1553   61.6310 C.1     1  ZINC001625935330    0.2500
     25 N25        -7.7952   -0.2352   62.6625 N.1     1  ZINC001625935330   -0.4100
     26 C26        -8.5643    1.0365   59.5102 C.ar    1  ZINC001625935330   -0.0600
     27 H27       -10.4210    3.5198   58.1823 H       1  ZINC001625935330    0.0700
     28 H28        -8.8536    3.7225   59.0012 H       1  ZINC001625935330    0.0600
     29 H29        -9.1189    4.4443   57.3960 H       1  ZINC001625935330    0.0700
     30 H30        -6.7794    2.1580   57.8968 H       1  ZINC001625935330    0.4100
     31 H31        -5.5703    3.0793   53.6626 H       1  ZINC001625935330    0.1500
     32 H32        -1.2371    4.4152   53.6736 H       1  ZINC001625935330    0.1300
     33 H33        -0.2570    4.6274   51.4270 H       1  ZINC001625935330    0.1300
     34 H34        -1.3872    3.6207   49.4873 H       1  ZINC001625935330    0.1300
     35 H35        -3.5013    2.3977   49.7833 H       1  ZINC001625935330    0.1300
     36 H36        -4.4926    2.1707   52.0235 H       1  ZINC001625935330    0.1300
     37 H37        -1.6438    3.1838   55.3972 H       1  ZINC001625935330    0.1400
     38 H38        -2.6882    2.9650   57.6155 H       1  ZINC001625935330    0.1700
     39 H39       -10.4468    0.2161   56.8359 H       1  ZINC001625935330    0.1300
     40 H40       -10.9623   -1.7150   58.2702 H       1  ZINC001625935330    0.1400
     41 H41        -9.9518   -1.8980   60.5048 H       1  ZINC001625935330    0.1400
     42 H42        -7.8939    1.8095   59.8557 H       1  ZINC001625935330    0.1400
@<TRIPOS>BOND
     1     1     2    1
     2     1    27    1
     3     1    28    1
     4     1    29    1
     5     2     3    1
     6     2     4    1
     7     2    19    1
     8     4     5   am
     9     4    30    1
    10     5     6    2
    11     5     7    1
    12     7    18   ar
    13     7     8   ar
    14     8     9   ar
    15     8    31    1
    16     9    10    1
    17     9    16   ar
    18    10    15   ar
    19    10    11   ar
    20    11    12   ar
    21    11    32    1
    22    12    13   ar
    23    12    33    1
    24    13    14   ar
    25    13    34    1
    26    14    15   ar
    27    14    35    1
    28    15    36    1
    29    16    17   ar
    30    16    37    1
    31    17    18   ar
    32    17    38    1
    33    19    26   ar
    34    19    20   ar
    35    20    21   ar
    36    20    39    1
    37    21    22   ar
    38    21    40    1
    39    22    23   ar
    40    22    41    1
    41    23    24    1
    42    23    26   ar
    43    24    25    3
    44    26    42    1
@<TRIPOS>SUBSTRUCTURE
     1 ZINC001625935330        1 TEMP              0 ****  ****    0 ROOT


##########                                Name:    ZINC000245764166
##########                DOCK_Rotatable_Bonds:                   8
##########                         Heavy_Atoms:                  26
##########                    Molecular_Weight:             359.512
##########                DOCK_Rotatable_Bonds:                   8
##########                       Formal_Charge:          -0.0100008
##########                     HBond_Acceptors:                   5
##########                        HBond_Donors:                   2
##########                         Heavy_Atoms:                  26
##########                          Grid_Score:          -26.493958
##########                     Grid_vdw_energy:          -26.732225
##########                      Grid_es_energy:            0.238268
##########           Internal_energy_repulsive:           30.329170

@<TRIPOS>MOLECULE
ZINC000245764166
 59 61 1 0 0
SMALL
USER_CHARGES


@<TRIPOS>ATOM
      1 C1         -9.7395    3.3988   52.1025 C.3     1  ZINC000245764166    0.0200
      2 N2         -9.1673    2.2860   52.8722 N.3     1  ZINC000245764166   -0.5300
      3 C3         -7.9552    2.7085   53.5866 C.3     1  ZINC000245764166    0.0600
      4 C4         -6.7779    2.6665   52.6468 C.ar    1  ZINC000245764166   -0.0800
      5 C5         -5.5658    3.2076   53.0328 C.ar    1  ZINC000245764166   -0.1000
      6 C6         -4.4859    3.1692   52.1707 C.ar    1  ZINC000245764166   -0.1200
      7 C7         -4.6178    2.5892   50.9229 C.ar    1  ZINC000245764166   -0.1200
      8 C8         -5.8296    2.0472   50.5373 C.ar    1  ZINC000245764166   -0.1200
      9 C9         -6.9084    2.0819   51.4010 C.ar    1  ZINC000245764166   -0.1200
     10 C10       -10.1572    1.7248   53.8012 C.3     1  ZINC000245764166    0.0500
     11 C11       -10.6836    0.3997   53.2461 C.3     1  ZINC000245764166    0.1900
     12 C12       -12.1690    0.5424   52.9081 C.3     1  ZINC000245764166   -0.1600
     13 C13        -9.9058    0.0317   51.9811 C.3     1  ZINC000245764166   -0.1500
     14 N14       -10.5102   -0.6534   54.2496 N.am    1  ZINC000245764166   -0.7400
     15 C15       -10.9880   -0.4801   55.4979 C.2     1  ZINC000245764166    0.7000
     16 O16       -11.5617    0.5509   55.7915 O.2     1  ZINC000245764166   -0.5800
     17 N17       -10.8298   -1.4496   56.4207 N.am    1  ZINC000245764166   -0.7500
     18 C18       -11.3477   -1.2604   57.7780 C.3     1  ZINC000245764166    0.1800
     19 H19       -12.2075   -0.5913   57.7438 H       1  ZINC000245764166    0.0900
     20 C20       -10.2597   -0.6366   58.6484 C.3     1  ZINC000245764166   -0.1300
     21 C21       -10.8346   -0.3894   60.0475 C.3     1  ZINC000245764166   -0.1100
     22 C22       -11.2015   -1.7398   60.6625 C.3     1  ZINC000245764166   -0.1100
     23 C23       -12.2148   -2.4734   59.8157 C.3     1  ZINC000245764166    0.0900
     24 H24       -12.3601   -3.4739   60.2230 H       1  ZINC000245764166    0.0600
     25 O25       -13.4832   -1.8073   59.7545 O.3     1  ZINC000245764166   -0.3600
     26 C26       -14.1979   -2.4054   58.6548 C.3     1  ZINC000245764166    0.0500
     27 C27       -13.1467   -2.9570   57.6702 C.3     1  ZINC000245764166   -0.1500
     28 C28       -11.7847   -2.6135   58.3435 C.3     1  ZINC000245764166   -0.1300
     29 H29       -11.0373   -3.3938   58.1996 H       1  ZINC000245764166    0.1000
     30 H30        -8.9909    3.7847   51.4105 H       1  ZINC000245764166    0.0800
     31 H31       -10.6048    3.0456   51.5418 H       1  ZINC000245764166    0.0700
     32 H32       -10.0472    4.1918   52.7841 H       1  ZINC000245764166    0.0200
     33 H33        -8.0877    3.7248   53.9576 H       1  ZINC000245764166    0.0400
     34 H34        -7.7748    2.0361   54.4253 H       1  ZINC000245764166    0.1100
     35 H35        -5.4627    3.6607   54.0077 H       1  ZINC000245764166    0.1200
     36 H36        -3.5390    3.5926   52.4720 H       1  ZINC000245764166    0.1200
     37 H37        -3.7743    2.5598   50.2492 H       1  ZINC000245764166    0.1200
     38 H38        -5.9328    1.5944   49.5623 H       1  ZINC000245764166    0.1200
     39 H39        -7.8551    1.6585   51.0998 H       1  ZINC000245764166    0.1200
     40 H40        -9.6892    1.5523   54.7704 H       1  ZINC000245764166    0.0400
     41 H41       -10.9848    2.4246   53.9167 H       1  ZINC000245764166    0.1000
     42 H42       -12.2979    1.3260   52.1614 H       1  ZINC000245764166    0.0700
     43 H43       -12.5440   -0.4016   52.5127 H       1  ZINC000245764166    0.0800
     44 H44       -12.7231    0.8046   53.8094 H       1  ZINC000245764166    0.0500
     45 H45        -8.8710   -0.1902   52.2424 H       1  ZINC000245764166    0.0600
     46 H46       -10.3593   -0.8444   51.5176 H       1  ZINC000245764166    0.0800
     47 H47        -9.9327    0.8675   51.2819 H       1  ZINC000245764166    0.0600
     48 H48       -10.0515   -1.4755   54.0157 H       1  ZINC000245764166    0.3900
     49 H49       -10.3733   -2.2726   56.1861 H       1  ZINC000245764166    0.3900
     50 H50        -9.4109   -1.3169   58.7166 H       1  ZINC000245764166    0.0600
     51 H51        -9.9397    0.3095   58.2120 H       1  ZINC000245764166    0.0700
     52 H52       -10.0887    0.1066   60.6687 H       1  ZINC000245764166    0.0700
     53 H53       -11.7253    0.2347   59.9736 H       1  ZINC000245764166    0.0700
     54 H54       -10.3016   -2.3485   60.7492 H       1  ZINC000245764166    0.0800
     55 H55       -11.6181   -1.5775   61.6567 H       1  ZINC000245764166    0.0700
     56 H56       -14.8263   -3.2179   59.0194 H       1  ZINC000245764166    0.0600
     57 H57       -14.8116   -1.6534   58.1589 H       1  ZINC000245764166    0.0800
     58 H58       -13.2564   -4.0357   57.5586 H       1  ZINC000245764166    0.0800
     59 H59       -13.2312   -2.4611   56.7033 H       1  ZINC000245764166    0.0800
@<TRIPOS>BOND
     1     1     2    1
     2     1    30    1
     3     1    31    1
     4     1    32    1
     5     2     3    1
     6     2    10    1
     7     3     4    1
     8     3    33    1
     9     3    34    1
    10     4     9   ar
    11     4     5   ar
    12     5     6   ar
    13     5    35    1
    14     6     7   ar
    15     6    36    1
    16     7     8   ar
    17     7    37    1
    18     8     9   ar
    19     8    38    1
    20     9    39    1
    21    10    11    1
    22    10    40    1
    23    10    41    1
    24    11    12    1
    25    11    13    1
    26    11    14    1
    27    12    42    1
    28    12    43    1
    29    12    44    1
    30    13    45    1
    31    13    46    1
    32    13    47    1
    33    14    15   am
    34    14    48    1
    35    15    16    2
    36    15    17   am
    37    17    18    1
    38    17    49    1
    39    18    19    1
    40    18    28    1
    41    18    20    1
    42    20    21    1
    43    20    50    1
    44    20    51    1
    45    21    22    1
    46    21    52    1
    47    21    53    1
    48    22    23    1
    49    22    54    1
    50    22    55    1
    51    23    24    1
    52    23    28    1
    53    23    25    1
    54    25    26    1
    55    26    27    1
    56    26    56    1
    57    26    57    1
    58    27    28    1
    59    27    58    1
    60    27    59    1
    61    28    29    1
@<TRIPOS>SUBSTRUCTURE
     1 ZINC000245764166        1 TEMP              0 ****  ****    0 ROOT


##########                                Name:    ZINC000945148121
##########                DOCK_Rotatable_Bonds:                   6
##########                         Heavy_Atoms:                  24
##########                    Molecular_Weight:             332.446
##########                DOCK_Rotatable_Bonds:                   6
##########                       Formal_Charge:           0.0100009
##########                     HBond_Acceptors:                   6
##########                        HBond_Donors:                   2
##########                         Heavy_Atoms:                  24
##########                          Grid_Score:          -26.488230
##########                     Grid_vdw_energy:          -24.718384
##########                      Grid_es_energy:           -1.769845
##########           Internal_energy_repulsive:           17.999006

@<TRIPOS>MOLECULE
ZINC000945148121
 52 54 1 0 0
SMALL
USER_CHARGES


@<TRIPOS>ATOM
      1 O1         -1.4968    4.7043   50.7301 O.2     1  ZINC000945148121   -0.5100
      2 C2         -1.2585    3.5581   51.0473 C.2     1  ZINC000945148121    0.5200
      3 C3         -0.0760    2.8410   50.4486 C.3     1  ZINC000945148121   -0.0500
      4 C4         -0.4875    2.1868   49.1549 C.2     1  ZINC000945148121    0.0100
      5 C5         -1.5092    2.5685   48.3650 C.2     1  ZINC000945148121   -0.0500
      6 N6         -1.5294    1.7085   47.3003 N.pl3   1  ZINC000945148121   -0.5700
      7 C7         -0.5185    0.8306   47.4766 C.2     1  ZINC000945148121    0.1800
      8 N8          0.1034    1.1259   48.5854 N.2     1  ZINC000945148121   -0.4700
      9 N9         -2.0480    2.9277   51.9394 N.am    1  ZINC000945148121   -0.7300
     10 C10        -3.1975    3.6249   52.5213 C.3     1  ZINC000945148121    0.1500
     11 C11        -4.4871    3.1006   51.8855 C.3     1  ZINC000945148121   -0.1400
     12 C12        -5.6842    3.8560   52.4713 C.3     1  ZINC000945148121    0.1100
     13 N13        -5.6442    3.7430   53.9356 N.am    1  ZINC000945148121   -0.6100
     14 C14        -6.7131    3.2879   54.6188 C.2     1  ZINC000945148121    0.5200
     15 O15        -6.6680    3.2006   55.8276 O.2     1  ZINC000945148121   -0.5400
     16 C16        -7.9644    2.8874   53.8805 C.3     1  ZINC000945148121   -0.1000
     17 C17        -7.7823    1.5188   53.2824 C.3     1  ZINC000945148121   -0.1200
     18 C18        -8.5178    1.3604   51.9380 C.3     1  ZINC000945148121   -0.1200
     19 C19        -9.9215    1.9952   51.9464 C.3     1  ZINC000945148121   -0.1200
     20 C20       -10.6668    1.7275   53.2258 C.3     1  ZINC000945148121   -0.1200
     21 C21       -10.4375    2.9143   54.1839 C.3     1  ZINC000945148121   -0.1200
     22 C22        -9.1524    2.8386   54.8631 C.3     1  ZINC000945148121   -0.1000
     23 C23        -4.4164    4.1351   54.6412 C.3     1  ZINC000945148121    0.1100
     24 C24        -3.2336    3.3766   54.0310 C.3     1  ZINC000945148121   -0.1400
     25 H25         0.7234    3.5565   50.2557 H       1  ZINC000945148121    0.1000
     26 H26         0.2777    2.0799   51.1442 H       1  ZINC000945148121    0.1000
     27 H27        -2.1834    3.3942   48.5385 H       1  ZINC000945148121    0.1800
     28 H28        -2.1532    1.7264   46.5577 H       1  ZINC000945148121    0.4200
     29 H29        -0.2642    0.0209   46.8087 H       1  ZINC000945148121    0.2100
     30 H30        -1.8550    2.0124   52.1959 H       1  ZINC000945148121    0.4000
     31 H31        -3.1079    4.6945   52.3312 H       1  ZINC000945148121    0.0900
     32 H32        -4.4507    3.2567   50.8073 H       1  ZINC000945148121    0.0800
     33 H33        -4.5901    2.0363   52.0963 H       1  ZINC000945148121    0.0700
     34 H34        -5.6297    4.9061   52.1843 H       1  ZINC000945148121    0.0700
     35 H35        -6.6103    3.4202   52.0964 H       1  ZINC000945148121    0.1000
     36 H36        -8.1713    3.6104   53.0915 H       1  ZINC000945148121    0.1000
     37 H37        -6.7183    1.3412   53.1255 H       1  ZINC000945148121    0.0700
     38 H38        -8.1626    0.7746   53.9822 H       1  ZINC000945148121    0.0700
     39 H39        -7.9237    1.8312   51.1546 H       1  ZINC000945148121    0.0600
     40 H40        -8.6137    0.2982   51.7127 H       1  ZINC000945148121    0.0700
     41 H41        -9.8221    3.0727   51.8150 H       1  ZINC000945148121    0.0600
     42 H42       -10.4961    1.5918   51.1126 H       1  ZINC000945148121    0.0600
     43 H43       -11.7316    1.6274   53.0152 H       1  ZINC000945148121    0.0600
     44 H44       -10.2932    0.8109   53.6823 H       1  ZINC000945148121    0.0700
     45 H45       -10.4811    3.8420   53.6134 H       1  ZINC000945148121    0.0600
     46 H46       -11.2314    2.9236   54.9307 H       1  ZINC000945148121    0.0600
     47 H47        -9.1057    1.9074   55.4274 H       1  ZINC000945148121    0.0700
     48 H48        -9.0705    3.6747   55.5577 H       1  ZINC000945148121    0.0700
     49 H49        -4.2585    5.2080   54.5311 H       1  ZINC000945148121    0.0700
     50 H50        -4.5060    3.8834   55.6979 H       1  ZINC000945148121    0.1000
     51 H51        -3.3483    2.3096   54.2216 H       1  ZINC000945148121    0.0700
     52 H52        -2.3048    3.7290   54.4799 H       1  ZINC000945148121    0.0800
@<TRIPOS>BOND
     1     1     2    2
     2     2     3    1
     3     2     9   am
     4     3     4    1
     5     3    25    1
     6     3    26    1
     7     4     8    1
     8     4     5    2
     9     5     6    1
    10     5    27    1
    11     6     7    1
    12     6    28    1
    13     7     8    2
    14     7    29    1
    15     9    10    1
    16     9    30    1
    17    10    24    1
    18    10    11    1
    19    10    31    1
    20    11    12    1
    21    11    32    1
    22    11    33    1
    23    12    13    1
    24    12    34    1
    25    12    35    1
    26    13    14   am
    27    13    23    1
    28    14    15    2
    29    14    16    1
    30    16    22    1
    31    16    17    1
    32    16    36    1
    33    17    18    1
    34    17    37    1
    35    17    38    1
    36    18    19    1
    37    18    39    1
    38    18    40    1
    39    19    20    1
    40    19    41    1
    41    19    42    1
    42    20    21    1
    43    20    43    1
    44    20    44    1
    45    21    22    1
    46    21    45    1
    47    21    46    1
    48    22    47    1
    49    22    48    1
    50    23    24    1
    51    23    49    1
    52    23    50    1
    53    24    51    1
    54    24    52    1
@<TRIPOS>SUBSTRUCTURE
     1 ZINC000945148121        1 TEMP              0 ****  ****    0 ROOT


##########                                Name:    ZINC001120957943
##########                DOCK_Rotatable_Bonds:                   4
##########                         Heavy_Atoms:                  27
##########                    Molecular_Weight:             396.802
##########                DOCK_Rotatable_Bonds:                   4
##########                       Formal_Charge:          -0.0199996
##########                     HBond_Acceptors:                  10
##########                        HBond_Donors:                   0
##########                         Heavy_Atoms:                  27
##########                          Grid_Score:          -26.476755
##########                     Grid_vdw_energy:          -24.810556
##########                      Grid_es_energy:           -1.666198
##########           Internal_energy_repulsive:            6.943449

@<TRIPOS>MOLECULE
ZINC001120957943
 43 46 1 0 0
SMALL
USER_CHARGES


@<TRIPOS>ATOM
      1 C1         -9.7485    2.0605   55.7617 C.3     1  ZINC001120957943    0.0900
      2 N2         -8.5308    2.6116   56.3615 N.pl3   1  ZINC001120957943   -0.6000
      3 C3         -8.5034    2.9463   57.7875 C.3     1  ZINC001120957943    0.2200
      4 C4         -8.2448    1.6984   58.5916 C.2     1  ZINC001120957943    0.1600
      5 N5         -7.7182    0.5846   58.1509 N.2     1  ZINC001120957943   -0.2500
      6 N6         -7.6451   -0.2722   59.1112 N.2     1  ZINC001120957943   -0.2800
      7 C7         -8.1196    0.2547   60.1988 C.2     1  ZINC001120957943    0.1700
      8 C8         -8.2422   -0.3663   61.5675 C.3     1  ZINC001120957943   -0.0300
      9 C9         -9.2110    0.4892   62.3950 C.3     1  ZINC001120957943   -0.1300
     10 C10        -8.8140    1.9633   62.2747 C.3     1  ZINC001120957943   -0.1500
     11 H11        -7.7506    2.0714   62.4884 H       1  ZINC001120957943    0.1300
     12 C12        -9.6218    2.7918   63.2755 C.3     1  ZINC001120957943    0.4600
     13 F13        -9.2764    4.1417   63.1498 F       1  ZINC001120957943   -0.1700
     14 F14       -10.9877    2.6339   63.0168 F       1  ZINC001120957943   -0.1800
     15 F15        -9.3401    2.3576   64.5753 F       1  ZINC001120957943   -0.1800
     16 C16        -9.1018    2.4586   60.8526 C.3     1  ZINC001120957943    0.1100
     17 N17        -8.5068    1.5209   59.9009 N.pl3   1  ZINC001120957943   -0.4700
     18 C18        -7.4039    2.8164   55.5792 C.ar    1  ZINC001120957943    0.3700
     19 C19        -7.5482    3.1252   54.2153 C.ar    1  ZINC001120957943    0.0500
     20 N20        -6.4944    3.3226   53.4603 N.ar    1  ZINC001120957943   -0.3900
     21 C21        -5.2682    3.2300   53.9899 C.ar    1  ZINC001120957943    0.0400
     22 C22        -4.1231    3.4375   53.2025 C.ar    1  ZINC001120957943   -0.0600
     23 C23        -2.8876    3.3376   53.7674 C.ar    1  ZINC001120957943   -0.0400
     24 Cl24       -1.4762    3.5950   52.7899 Cl      1  ZINC001120957943   -0.0600
     25 C25        -2.7406    3.0318   55.1201 C.ar    1  ZINC001120957943   -0.0800
     26 C26        -3.8275    2.8246   55.9123 C.ar    1  ZINC001120957943   -0.0800
     27 C27        -5.1182    2.9190   55.3642 C.ar    1  ZINC001120957943    0.1400
     28 N28        -6.2046    2.7254   56.1221 N.ar    1  ZINC001120957943   -0.4700
     29 H29       -10.3741    2.8748   55.3959 H       1  ZINC001120957943    0.0700
     30 H30        -9.4810    1.4068   54.9316 H       1  ZINC001120957943    0.0800
     31 H31       -10.2967    1.4898   56.5114 H       1  ZINC001120957943    0.0700
     32 H32        -7.7108    3.6705   57.9754 H       1  ZINC001120957943    0.1200
     33 H33        -9.4628    3.3740   58.0788 H       1  ZINC001120957943    0.1000
     34 H34        -8.6314   -1.3805   61.4779 H       1  ZINC001120957943    0.1100
     35 H35        -7.2654   -0.3877   62.0507 H       1  ZINC001120957943    0.1000
     36 H36       -10.2260    0.3540   62.0213 H       1  ZINC001120957943    0.0900
     37 H37        -9.1640    0.1839   63.4404 H       1  ZINC001120957943    0.1000
     38 H38       -10.1791    2.5110   60.6947 H       1  ZINC001120957943    0.1000
     39 H39        -8.6613    3.4458   60.7131 H       1  ZINC001120957943    0.1100
     40 H40        -8.5360    3.2001   53.7853 H       1  ZINC001120957943    0.1700
     41 H41        -4.2222    3.6751   52.1537 H       1  ZINC001120957943    0.1500
     42 H42        -1.7503    2.9581   55.5448 H       1  ZINC001120957943    0.1400
     43 H43        -3.6988    2.5882   56.9583 H       1  ZINC001120957943    0.1500
@<TRIPOS>BOND
     1     1     2    1
     2     1    29    1
     3     1    30    1
     4     1    31    1
     5     2     3    1
     6     2    18    1
     7     3     4    1
     8     3    32    1
     9     3    33    1
    10     4    17    1
    11     4     5    2
    12     5     6    1
    13     6     7    2
    14     7    17    1
    15     7     8    1
    16     8     9    1
    17     8    34    1
    18     8    35    1
    19     9    10    1
    20     9    36    1
    21     9    37    1
    22    10    11    1
    23    10    12    1
    24    10    16    1
    25    12    13    1
    26    12    14    1
    27    12    15    1
    28    16    17    1
    29    16    38    1
    30    16    39    1
    31    18    28   ar
    32    18    19   ar
    33    19    20   ar
    34    19    40    1
    35    20    21   ar
    36    21    27   ar
    37    21    22   ar
    38    22    23   ar
    39    22    41    1
    40    23    24    1
    41    23    25   ar
    42    25    26   ar
    43    25    42    1
    44    26    27   ar
    45    26    43    1
    46    27    28   ar
@<TRIPOS>SUBSTRUCTURE
     1 ZINC001120957943        1 TEMP              0 ****  ****    0 ROOT


##########                                Name:    ZINC000484424341
##########                DOCK_Rotatable_Bonds:                   7
##########                         Heavy_Atoms:                  26
##########                    Molecular_Weight:             359.425
##########                DOCK_Rotatable_Bonds:                   7
##########                       Formal_Charge:          -0.0100009
##########                     HBond_Acceptors:                   7
##########                        HBond_Donors:                   1
##########                         Heavy_Atoms:                  26
##########                          Grid_Score:          -26.463493
##########                     Grid_vdw_energy:          -26.029821
##########                      Grid_es_energy:           -0.433673
##########           Internal_energy_repulsive:           11.967599

@<TRIPOS>MOLECULE
ZINC000484424341
 51 53 1 0 0
SMALL
USER_CHARGES


@<TRIPOS>ATOM
      1 C1        -13.4303    3.4757   52.3394 C.3     1  ZINC000484424341    0.0300
      2 O2        -12.3476    2.5743   52.1002 O.3     1  ZINC000484424341   -0.3800
      3 C3        -11.1753    3.2004   51.5751 C.3     1  ZINC000484424341    0.1300
      4 H4        -11.0310    4.1659   52.0598 H       1  ZINC000484424341    0.0700
      5 C5        -11.3385    3.4058   50.0678 C.3     1  ZINC000484424341   -0.1700
      6 C6         -9.9779    2.3234   51.8358 C.ar    1  ZINC000484424341   -0.0700
      7 C7        -10.0515    0.9641   51.5934 C.ar    1  ZINC000484424341   -0.1000
      8 C8         -8.9548    0.1555   51.8312 C.ar    1  ZINC000484424341   -0.1000
      9 C9         -7.7823    0.7035   52.3120 C.ar    1  ZINC000484424341   -0.1100
     10 C10        -7.7047    2.0692   52.5567 C.ar    1  ZINC000484424341    0.1400
     11 N11        -6.5196    2.6272   53.0427 N.am    1  ZINC000484424341   -0.6400
     12 C12        -5.5622    3.0294   52.1836 C.2     1  ZINC000484424341    0.5100
     13 O13        -5.7295    2.9070   50.9876 O.2     1  ZINC000484424341   -0.4900
     14 C14        -4.2953    3.6259   52.7031 C.2     1  ZINC000484424341    0.5200
     15 O15        -4.3081    4.2849   53.7222 O.2     1  ZINC000484424341   -0.5200
     16 N16        -3.1379    3.4324   52.0402 N.am    1  ZINC000484424341   -0.5800
     17 C17        -1.8243    3.9593   52.4379 C.3     1  ZINC000484424341    0.1100
     18 C18        -0.7972    3.4611   51.3993 C.3     1  ZINC000484424341   -0.1500
     19 C19        -1.4943    2.2155   50.7912 C.3     1  ZINC000484424341    0.1500
     20 H20        -1.3449    1.3380   51.4204 H       1  ZINC000484424341    0.1100
     21 N21        -1.0251    1.9653   49.4261 N.am    1  ZINC000484424341   -0.6100
     22 C22        -1.6456    2.5276   48.2209 C.3     1  ZINC000484424341    0.1000
     23 C23        -0.5937    2.3649   47.1014 C.3     1  ZINC000484424341   -0.1300
     24 C24         0.2331    1.1645   47.6178 C.3     1  ZINC000484424341   -0.1600
     25 C25         0.0327    1.1956   49.1170 C.2     1  ZINC000484424341    0.5200
     26 O26         0.7217    0.6059   49.9222 O.2     1  ZINC000484424341   -0.5200
     27 C27        -2.9783    2.6518   50.7998 C.3     1  ZINC000484424341    0.0900
     28 C28        -8.8062    2.8791   52.3113 C.ar    1  ZINC000484424341   -0.1300
     29 H29       -13.7148    3.9581   51.4043 H       1  ZINC000484424341    0.0400
     30 H30       -14.2818    2.9233   52.7370 H       1  ZINC000484424341    0.0900
     31 H31       -13.1203    4.2330   53.0594 H       1  ZINC000484424341    0.0400
     32 H32       -11.4828    2.4403   49.5830 H       1  ZINC000484424341    0.0700
     33 H33       -12.2046    4.0401   49.8792 H       1  ZINC000484424341    0.0600
     34 H34       -10.4442    3.8833   49.6672 H       1  ZINC000484424341    0.0700
     35 H35       -10.9675    0.5327   51.2177 H       1  ZINC000484424341    0.1300
     36 H36        -9.0160   -0.9060   51.6412 H       1  ZINC000484424341    0.1300
     37 H37        -6.9265    0.0716   52.4978 H       1  ZINC000484424341    0.1300
     38 H38        -6.3858    2.7251   53.9984 H       1  ZINC000484424341    0.4200
     39 H39        -1.8480    5.0490   52.4425 H       1  ZINC000484424341    0.0800
     40 H40        -1.5601    3.5879   53.4281 H       1  ZINC000484424341    0.0800
     41 H41        -0.6241    4.2180   50.6344 H       1  ZINC000484424341    0.0900
     42 H42         0.1376    3.1811   51.8851 H       1  ZINC000484424341    0.0900
     43 H43        -2.5515    1.9756   47.9704 H       1  ZINC000484424341    0.0800
     44 H44        -1.8754    3.5823   48.3721 H       1  ZINC000484424341    0.0800
     45 H45        -1.0701    2.1297   46.1496 H       1  ZINC000484424341    0.0900
     46 H46         0.0261    3.2574   47.0157 H       1  ZINC000484424341    0.0800
     47 H47        -0.1445    0.2323   47.1978 H       1  ZINC000484424341    0.1100
     48 H48         1.2874    1.2944   47.3738 H       1  ZINC000484424341    0.1000
     49 H49        -3.6305    1.7785   50.8105 H       1  ZINC000484424341    0.0900
     50 H50        -3.1949    3.2773   49.9338 H       1  ZINC000484424341    0.0900
     51 H51        -8.7492    3.9410   52.5001 H       1  ZINC000484424341    0.1300
@<TRIPOS>BOND
     1     1     2    1
     2     1    29    1
     3     1    30    1
     4     1    31    1
     5     2     3    1
     6     3     4    1
     7     3     5    1
     8     3     6    1
     9     5    32    1
    10     5    33    1
    11     5    34    1
    12     6    28   ar
    13     6     7   ar
    14     7     8   ar
    15     7    35    1
    16     8     9   ar
    17     8    36    1
    18     9    10   ar
    19     9    37    1
    20    10    11    1
    21    10    28   ar
    22    11    12   am
    23    11    38    1
    24    12    13    2
    25    12    14    1
    26    14    15    2
    27    14    16   am
    28    16    27    1
    29    16    17    1
    30    17    18    1
    31    17    39    1
    32    17    40    1
    33    18    19    1
    34    18    41    1
    35    18    42    1
    36    19    20    1
    37    19    21    1
    38    19    27    1
    39    21    25   am
    40    21    22    1
    41    22    23    1
    42    22    43    1
    43    22    44    1
    44    23    24    1
    45    23    45    1
    46    23    46    1
    47    24    25    1
    48    24    47    1
    49    24    48    1
    50    25    26    2
    51    27    49    1
    52    27    50    1
    53    28    51    1
@<TRIPOS>SUBSTRUCTURE
     1 ZINC000484424341        1 TEMP              0 ****  ****    0 ROOT


##########                                Name:    ZINC000800038938
##########                DOCK_Rotatable_Bonds:                   6
##########                         Heavy_Atoms:                  25
##########                    Molecular_Weight:             386.274
##########                DOCK_Rotatable_Bonds:                   6
##########                       Formal_Charge:           0.0200003
##########                     HBond_Acceptors:                   7
##########                        HBond_Donors:                   0
##########                         Heavy_Atoms:                  25
##########                          Grid_Score:          -26.448082
##########                     Grid_vdw_energy:          -25.243773
##########                      Grid_es_energy:           -1.204309
##########           Internal_energy_repulsive:           10.748918

@<TRIPOS>MOLECULE
ZINC000800038938
 46 48 1 0 0
SMALL
USER_CHARGES


@<TRIPOS>ATOM
      1 C1        -10.6520   -0.2676   51.5414 C.3     1  ZINC000800038938    0.0300
      2 O2        -11.1295   -0.9498   52.7028 O.3     1  ZINC000800038938   -0.3800
      3 C3        -11.4572   -0.0843   53.7917 C.3     1  ZINC000800038938    0.0900
      4 H4        -12.2123    0.6375   53.4802 H       1  ZINC000800038938    0.0700
      5 C5        -10.1927    0.6514   54.2809 C.3     1  ZINC000800038938   -0.1400
      6 C6        -10.3664    0.7239   55.8183 C.3     1  ZINC000800038938   -0.1400
      7 C7        -11.0064   -0.6458   56.1550 C.3     1  ZINC000800038938    0.0900
      8 H8        -10.2433   -1.4226   56.2011 H       1  ZINC000800038938    0.0900
      9 O9        -11.7321   -0.5728   57.4105 O.3     1  ZINC000800038938   -0.3500
     10 C10       -11.9223   -1.7251   58.0724 C.2     1  ZINC000800038938    0.4500
     11 O11       -12.1630   -2.7396   57.4620 O.2     1  ZINC000800038938   -0.4800
     12 C12       -11.8357   -1.7532   59.5765 C.3     1  ZINC000800038938    0.1500
     13 H13       -12.2098   -2.7059   59.9515 H       1  ZINC000800038938    0.1200
     14 C14       -10.3718   -1.5523   60.0219 C.3     1  ZINC000800038938   -0.1200
     15 C15       -10.5117   -0.6574   61.2818 C.3     1  ZINC000800038938   -0.1300
     16 C16       -11.7128    0.2406   60.8937 C.3     1  ZINC000800038938    0.0900
     17 N17       -12.6234   -0.6488   60.1434 N.am    1  ZINC000800038938   -0.6000
     18 C18       -13.9521   -0.4733   60.0012 C.2     1  ZINC000800038938    0.5800
     19 O19       -14.4972    0.4838   60.5153 O.2     1  ZINC000800038938   -0.4900
     20 C20       -14.7462   -1.4446   59.2203 C.ar    1  ZINC000800038938   -0.1100
     21 C21       -15.0909   -1.1654   57.8969 C.ar    1  ZINC000800038938   -0.0700
     22 C22       -15.8330   -2.0772   57.1732 C.ar    1  ZINC000800038938   -0.0400
     23 Cl23      -16.2624   -1.7321   55.5268 Cl      1  ZINC000800038938   -0.0500
     24 C24       -16.2354   -3.2667   57.7572 C.ar    1  ZINC000800038938   -0.0700
     25 C25       -15.8977   -3.5496   59.0681 C.ar    1  ZINC000800038938   -0.1000
     26 C26       -15.1505   -2.6492   59.8018 C.ar    1  ZINC000800038938    0.0100
     27 Cl27      -14.7276   -3.0061   61.4472 Cl      1  ZINC000800038938   -0.0300
     28 C28       -11.9758   -0.9090   54.9828 C.3     1  ZINC000800038938   -0.1200
     29 H29       -10.4256   -0.9939   50.7608 H       1  ZINC000800038938    0.0900
     30 H30       -11.4170    0.4223   51.1851 H       1  ZINC000800038938    0.0400
     31 H31        -9.7492    0.2893   51.7927 H       1  ZINC000800038938    0.0400
     32 H32        -9.2980    0.0841   54.0243 H       1  ZINC000800038938    0.0800
     33 H33       -10.1455    1.6535   53.8546 H       1  ZINC000800038938    0.0800
     34 H34        -9.4002    0.8304   56.3116 H       1  ZINC000800038938    0.0800
     35 H35       -11.0339    1.5404   56.0936 H       1  ZINC000800038938    0.0800
     36 H36        -9.9115   -2.5070   60.2762 H       1  ZINC000800038938    0.1000
     37 H37        -9.7999   -1.0412   59.2475 H       1  ZINC000800038938    0.0900
     38 H38       -10.7404   -1.2566   62.1632 H       1  ZINC000800038938    0.0900
     39 H39        -9.6129   -0.0612   61.4392 H       1  ZINC000800038938    0.1000
     40 H40       -12.2070    0.6202   61.7879 H       1  ZINC000800038938    0.0900
     41 H41       -11.3815    1.0656   60.2630 H       1  ZINC000800038938    0.0800
     42 H42       -14.7782   -0.2381   57.4402 H       1  ZINC000800038938    0.1500
     43 H43       -16.8158   -3.9765   57.1865 H       1  ZINC000800038938    0.1500
     44 H44       -16.2151   -4.4791   59.5177 H       1  ZINC000800038938    0.1500
     45 H45       -12.9822   -0.5873   55.2510 H       1  ZINC000800038938    0.0900
     46 H46       -11.9772   -1.9693   54.7303 H       1  ZINC000800038938    0.0900
@<TRIPOS>BOND
     1     1     2    1
     2     1    29    1
     3     1    30    1
     4     1    31    1
     5     2     3    1
     6     3     4    1
     7     3    28    1
     8     3     5    1
     9     5     6    1
    10     5    32    1
    11     5    33    1
    12     6     7    1
    13     6    34    1
    14     6    35    1
    15     7     8    1
    16     7     9    1
    17     7    28    1
    18     9    10    1
    19    10    11    2
    20    10    12    1
    21    12    13    1
    22    12    17    1
    23    12    14    1
    24    14    15    1
    25    14    36    1
    26    14    37    1
    27    15    16    1
    28    15    38    1
    29    15    39    1
    30    16    17    1
    31    16    40    1
    32    16    41    1
    33    17    18   am
    34    18    19    2
    35    18    20    1
    36    20    26   ar
    37    20    21   ar
    38    21    22   ar
    39    21    42    1
    40    22    23    1
    41    22    24   ar
    42    24    25   ar
    43    24    43    1
    44    25    26   ar
    45    25    44    1
    46    26    27    1
    47    28    45    1
    48    28    46    1
@<TRIPOS>SUBSTRUCTURE
     1 ZINC000800038938        1 TEMP              0 ****  ****    0 ROOT


##########                                Name:    ZINC001176298561
##########                DOCK_Rotatable_Bonds:                   6
##########                         Heavy_Atoms:                  23
##########                    Molecular_Weight:             337.781
##########                DOCK_Rotatable_Bonds:                   6
##########                       Formal_Charge:          -0.0100003
##########                     HBond_Acceptors:                   7
##########                        HBond_Donors:                   2
##########                         Heavy_Atoms:                  23
##########                          Grid_Score:          -26.447094
##########                     Grid_vdw_energy:          -24.687851
##########                      Grid_es_energy:           -1.759242
##########           Internal_energy_repulsive:           14.523946

@<TRIPOS>MOLECULE
ZINC001176298561
 40 41 1 0 0
SMALL
USER_CHARGES


@<TRIPOS>ATOM
      1 C1        -10.6965    2.2461   54.2222 C.3     1  ZINC001176298561   -0.1700
      2 C2         -9.9608    1.0335   54.7959 C.3     1  ZINC001176298561    0.1100
      3 N3        -10.3905   -0.1767   54.0908 N.am    1  ZINC001176298561   -0.6100
      4 C4         -9.9911   -0.3940   52.6982 C.3     1  ZINC001176298561    0.0900
      5 C5         -8.5584    0.1034   52.4949 C.3     1  ZINC001176298561   -0.1800
      6 C6        -11.1532   -1.0902   54.7234 C.2     1  ZINC001176298561    0.5600
      7 O7        -11.5098   -2.0942   54.1385 O.2     1  ZINC001176298561   -0.5300
      8 C8        -11.5563   -0.8709   56.1292 C.ar    1  ZINC001176298561   -0.0600
      9 C9        -12.5264    0.0836   56.4382 C.ar    1  ZINC001176298561   -0.1900
     10 C10       -12.9016    0.2868   57.7535 C.ar    1  ZINC001176298561    0.1400
     11 F11       -13.8412    1.2109   58.0509 F       1  ZINC001176298561   -0.1300
     12 C12       -12.3177   -0.4544   58.7660 C.ar    1  ZINC001176298561   -0.1800
     13 C13       -11.3507   -1.4071   58.4664 C.ar    1  ZINC001176298561    0.2400
     14 N14       -10.7644   -2.1531   59.4915 N.pl3   1  ZINC001176298561   -0.6700
     15 C15        -9.9316   -1.5255   60.4257 C.2     1  ZINC001176298561    0.0400
     16 C16       -10.4685   -0.8119   61.4623 C.2     1  ZINC001176298561   -0.0300
     17 C17        -9.6115   -0.1932   62.3848 C.2     1  ZINC001176298561   -0.1300
     18 Cl18      -10.2719    0.7170   63.7074 Cl      1  ZINC001176298561   -0.0400
     19 C19        -8.2703   -0.3059   62.2443 C.2     1  ZINC001176298561    0.1400
     20 N20        -7.7349   -1.0154   61.2138 N.am    1  ZINC001176298561   -0.6000
     21 C21        -8.5275   -1.6264   60.3126 C.2     1  ZINC001176298561    0.5100
     22 O22        -8.0326   -2.2595   59.3938 O.2     1  ZINC001176298561   -0.5200
     23 C23       -10.9724   -1.6215   57.1494 C.ar    1  ZINC001176298561   -0.1300
     24 H24       -10.3768    3.1466   54.7467 H       1  ZINC001176298561    0.0700
     25 H25       -10.4659    2.3426   53.1612 H       1  ZINC001176298561    0.0600
     26 H26       -11.7708    2.1133   54.3500 H       1  ZINC001176298561    0.0600
     27 H27        -8.8865    1.1663   54.6680 H       1  ZINC001176298561    0.0800
     28 H28       -10.1913    0.9371   55.8568 H       1  ZINC001176298561    0.0900
     29 H29       -10.0425   -1.4580   52.4672 H       1  ZINC001176298561    0.0900
     30 H30       -10.6631    0.1540   52.0377 H       1  ZINC001176298561    0.0800
     31 H31        -7.9555   -0.1607   53.3638 H       1  ZINC001176298561    0.0700
     32 H32        -8.1354   -0.3613   51.6043 H       1  ZINC001176298561    0.0700
     33 H33        -8.5638    1.1864   52.3719 H       1  ZINC001176298561    0.0600
     34 H34       -12.9836    0.6638   55.6503 H       1  ZINC001176298561    0.1500
     35 H35       -12.6138   -0.2918   59.7918 H       1  ZINC001176298561    0.1300
     36 H36       -10.9342   -3.1059   59.5561 H       1  ZINC001176298561    0.4200
     37 H37       -11.5398   -0.7256   61.5690 H       1  ZINC001176298561    0.1500
     38 H38        -7.6170    0.1731   62.9584 H       1  ZINC001176298561    0.1800
     39 H39        -6.7710   -1.0847   61.1294 H       1  ZINC001176298561    0.4300
     40 H40       -10.2213   -2.3614   56.9154 H       1  ZINC001176298561    0.1400
@<TRIPOS>BOND
     1     1     2    1
     2     1    24    1
     3     1    25    1
     4     1    26    1
     5     2     3    1
     6     2    27    1
     7     2    28    1
     8     3     4    1
     9     3     6   am
    10     4     5    1
    11     4    29    1
    12     4    30    1
    13     5    31    1
    14     5    32    1
    15     5    33    1
    16     6     7    2
    17     6     8    1
    18     8    23   ar
    19     8     9   ar
    20     9    10   ar
    21     9    34    1
    22    10    11    1
    23    10    12   ar
    24    12    13   ar
    25    12    35    1
    26    13    14    1
    27    13    23   ar
    28    14    15    1
    29    14    36    1
    30    15    21    1
    31    15    16    2
    32    16    17    1
    33    16    37    1
    34    17    18    1
    35    17    19    2
    36    19    20    1
    37    19    38    1
    38    20    21   am
    39    20    39    1
    40    21    22    2
    41    23    40    1
@<TRIPOS>SUBSTRUCTURE
     1 ZINC001176298561        1 TEMP              0 ****  ****    0 ROOT


##########                                Name:    ZINC000426607143
##########                DOCK_Rotatable_Bonds:                   3
##########                         Heavy_Atoms:                  25
##########                    Molecular_Weight:             419.302
##########                DOCK_Rotatable_Bonds:                   3
##########                       Formal_Charge:         1.49012e-07
##########                     HBond_Acceptors:                   7
##########                        HBond_Donors:                   0
##########                         Heavy_Atoms:                  25
##########                          Grid_Score:          -26.409370
##########                     Grid_vdw_energy:          -26.085360
##########                      Grid_es_energy:           -0.324011
##########           Internal_energy_repulsive:           27.578220

@<TRIPOS>MOLECULE
ZINC000426607143
 40 43 1 0 0
SMALL
USER_CHARGES


@<TRIPOS>ATOM
      1 C1         -0.9163    2.2365   57.4171 C.3     1  ZINC000426607143   -0.0900
      2 C2         -0.0601    2.8841   56.3593 C.2     1  ZINC000426607143    0.1600
      3 N3          1.2039    3.1075   56.5508 N.2     1  ZINC000426607143   -0.4600
      4 S4          1.8106    3.8400   55.1474 S.3     1  ZINC000426607143    0.2900
      5 C5          0.3195    3.8405   54.2895 C.2     1  ZINC000426607143   -0.1300
      6 C6          0.0679    4.3614   52.8979 C.3     1  ZINC000426607143   -0.0800
      7 C7         -0.5850    3.2649   55.1315 C.2     1  ZINC000426607143   -0.1200
      8 C8         -2.0104    3.0708   54.7706 C.2     1  ZINC000426607143    0.2500
      9 N9         -2.9182    2.4634   55.4905 N.2     1  ZINC000426607143   -0.3700
     10 O10        -3.9846    2.4753   54.9128 O.3     1  ZINC000426607143    0.0900
     11 C11        -3.8633    3.1051   53.7401 C.2     1  ZINC000426607143    0.2000
     12 C12        -4.9569    3.3310   52.7282 C.3     1  ZINC000426607143   -0.0300
     13 H13        -5.0228    4.3875   52.4686 H       1  ZINC000426607143    0.1600
     14 C14        -4.7083    2.4773   51.4630 C.3     1  ZINC000426607143   -0.1200
     15 C15        -6.1462    2.0743   51.0675 C.3     1  ZINC000426607143    0.1000
     16 N16        -6.9234    2.1255   52.3114 N.am    1  ZINC000426607143   -0.5800
     17 C17        -8.1723    1.5189   52.4878 C.ar    1  ZINC000426607143    0.1700
     18 C18        -8.2608    0.2704   53.0880 C.ar    1  ZINC000426607143   -0.1000
     19 C19        -9.4950   -0.3259   53.2607 C.ar    1  ZINC000426607143   -0.1000
     20 C20       -10.6418    0.3190   52.8360 C.ar    1  ZINC000426607143   -0.1000
     21 C21       -10.5579    1.5630   52.2375 C.ar    1  ZINC000426607143   -0.0900
     22 C22        -9.3273    2.1676   52.0674 C.ar    1  ZINC000426607143   -0.0800
     23 Br23       -9.2131    3.8685   51.2489 Br      1  ZINC000426607143   -0.0400
     24 C24        -6.2823    2.8329   53.2610 C.2     1  ZINC000426607143    0.5300
     25 O25        -6.7047    3.0366   54.3796 O.2     1  ZINC000426607143   -0.4900
     26 N26        -2.6167    3.4936   53.6379 N.2     1  ZINC000426607143   -0.4600
     27 H27        -0.8964    1.1543   57.2882 H       1  ZINC000426607143    0.0900
     28 H28        -0.5300    2.4919   58.4038 H       1  ZINC000426607143    0.0800
     29 H29        -1.9415    2.5947   57.3242 H       1  ZINC000426607143    0.1100
     30 H30         0.9957    4.7570   52.4846 H       1  ZINC000426607143    0.0800
     31 H31        -0.2943    3.5502   52.2664 H       1  ZINC000426607143    0.0900
     32 H32        -0.6798    5.1537   52.9362 H       1  ZINC000426607143    0.0900
     33 H33        -4.2396    3.0707   50.6780 H       1  ZINC000426607143    0.1100
     34 H34        -4.1074    1.5986   51.6973 H       1  ZINC000426607143    0.1000
     35 H35        -6.5495    2.7802   50.3414 H       1  ZINC000426607143    0.0900
     36 H36        -6.1557    1.0642   50.6580 H       1  ZINC000426607143    0.0900
     37 H37        -7.3655   -0.2346   53.4195 H       1  ZINC000426607143    0.1400
     38 H38        -9.5641   -1.2972   53.7277 H       1  ZINC000426607143    0.1400
     39 H39       -11.6052   -0.1498   52.9716 H       1  ZINC000426607143    0.1400
     40 H40       -11.4556    2.0642   51.9068 H       1  ZINC000426607143    0.1400
@<TRIPOS>BOND
     1     1     2    1
     2     1    27    1
     3     1    28    1
     4     1    29    1
     5     2     7    1
     6     2     3    2
     7     3     4    1
     8     4     5    1
     9     5     6    1
    10     5     7    2
    11     6    30    1
    12     6    31    1
    13     6    32    1
    14     7     8    1
    15     8    26    1
    16     8     9    2
    17     9    10    1
    18    10    11    1
    19    11    12    1
    20    11    26    2
    21    12    13    1
    22    12    24    1
    23    12    14    1
    24    14    15    1
    25    14    33    1
    26    14    34    1
    27    15    16    1
    28    15    35    1
    29    15    36    1
    30    16    17    1
    31    16    24   am
    32    17    22   ar
    33    17    18   ar
    34    18    19   ar
    35    18    37    1
    36    19    20   ar
    37    19    38    1
    38    20    21   ar
    39    20    39    1
    40    21    22   ar
    41    21    40    1
    42    22    23    1
    43    24    25    2
@<TRIPOS>SUBSTRUCTURE
     1 ZINC000426607143        1 TEMP              0 ****  ****    0 ROOT


##########                                Name:    ZINC000763800048
##########                DOCK_Rotatable_Bonds:                   8
##########                         Heavy_Atoms:                  23
##########                    Molecular_Weight:             329.783
##########                DOCK_Rotatable_Bonds:                   8
##########                       Formal_Charge:           0.0199994
##########                     HBond_Acceptors:                   5
##########                        HBond_Donors:                   1
##########                         Heavy_Atoms:                  23
##########                          Grid_Score:          -26.387365
##########                     Grid_vdw_energy:          -25.119257
##########                      Grid_es_energy:           -1.268108
##########           Internal_energy_repulsive:            4.171096

@<TRIPOS>MOLECULE
ZINC000763800048
 39 40 1 0 0
SMALL
USER_CHARGES


@<TRIPOS>ATOM
      1 C1          2.5099   -1.9172   49.9384 C.3     1  ZINC000763800048    0.0400
      2 O2          3.1673   -0.6908   50.3533 O.3     1  ZINC000763800048   -0.3600
      3 C3          2.7488    0.4487   49.7805 C.2     1  ZINC000763800048    0.4600
      4 O4          1.9612    0.4110   48.8650 O.2     1  ZINC000763800048   -0.4900
      5 C5          3.2616    1.7751   50.2791 C.3     1  ZINC000763800048   -0.0700
      6 C6          2.1485    2.7904   50.2413 C.ar    1  ZINC000763800048   -0.0600
      7 C7          2.3230    3.9814   49.5609 C.ar    1  ZINC000763800048   -0.1200
      8 C8          1.3040    4.9158   49.5238 C.ar    1  ZINC000763800048   -0.1000
      9 C9          0.1082    4.6617   50.1659 C.ar    1  ZINC000763800048   -0.1100
     10 C10        -0.0705    3.4658   50.8499 C.ar    1  ZINC000763800048    0.1500
     11 N11        -1.2800    3.2052   51.5012 N.am    1  ZINC000763800048   -0.6700
     12 C12        -2.2280    2.4661   50.8917 C.2     1  ZINC000763800048    0.5500
     13 O13        -2.0312    2.0255   49.7743 O.2     1  ZINC000763800048   -0.5200
     14 C14        -3.4939    2.1934   51.5733 C.2     1  ZINC000763800048   -0.2100
     15 C15        -4.6502    2.2073   50.8792 C.2     1  ZINC000763800048   -0.0100
     16 C16        -5.9230    1.9314   51.5643 C.ar    1  ZINC000763800048   -0.0800
     17 C17        -6.4570    2.8657   52.4577 C.ar    1  ZINC000763800048   -0.0900
     18 C18        -7.6496    2.6006   53.0959 C.ar    1  ZINC000763800048   -0.1100
     19 C19        -8.3188    1.4116   52.8546 C.ar    1  ZINC000763800048   -0.0200
     20 Cl20       -9.8199    1.0859   53.6633 Cl      1  ZINC000763800048   -0.0600
     21 C21        -7.7960    0.4817   51.9706 C.ar    1  ZINC000763800048   -0.1100
     22 C22        -6.6072    0.7360   51.3209 C.ar    1  ZINC000763800048   -0.0800
     23 C23         0.9530    2.5276   50.8813 C.ar    1  ZINC000763800048   -0.1300
     24 H24         2.9420   -2.7610   50.4764 H       1  ZINC000763800048    0.1000
     25 H25         1.4449   -1.8517   50.1605 H       1  ZINC000763800048    0.0600
     26 H26         2.6495   -2.0597   48.8668 H       1  ZINC000763800048    0.0600
     27 H27         3.6182    1.6651   51.3032 H       1  ZINC000763800048    0.1200
     28 H28         4.0808    2.1104   49.6431 H       1  ZINC000763800048    0.1200
     29 H29         3.2572    4.1827   49.0579 H       1  ZINC000763800048    0.1200
     30 H30         1.4437    5.8455   48.9921 H       1  ZINC000763800048    0.1300
     31 H31        -0.6869    5.3918   50.1367 H       1  ZINC000763800048    0.1400
     32 H32        -1.4369    3.5564   52.3917 H       1  ZINC000763800048    0.4100
     33 H33        -3.5023    1.9810   52.6321 H       1  ZINC000763800048    0.1300
     34 H34        -4.6420    2.4210   49.8206 H       1  ZINC000763800048    0.1400
     35 H35        -5.9360    3.7927   52.6472 H       1  ZINC000763800048    0.1400
     36 H36        -8.0631    3.3212   53.7859 H       1  ZINC000763800048    0.1400
     37 H37        -8.3231   -0.4430   51.7873 H       1  ZINC000763800048    0.1400
     38 H38        -6.2010    0.0104   50.6319 H       1  ZINC000763800048    0.1400
     39 H39         0.8171    1.5967   51.4118 H       1  ZINC000763800048    0.1300
@<TRIPOS>BOND
     1     1     2    1
     2     1    24    1
     3     1    25    1
     4     1    26    1
     5     2     3    1
     6     3     4    2
     7     3     5    1
     8     5     6    1
     9     5    27    1
    10     5    28    1
    11     6    23   ar
    12     6     7   ar
    13     7     8   ar
    14     7    29    1
    15     8     9   ar
    16     8    30    1
    17     9    10   ar
    18     9    31    1
    19    10    11    1
    20    10    23   ar
    21    11    12   am
    22    11    32    1
    23    12    13    2
    24    12    14    1
    25    14    15    2
    26    14    33    1
    27    15    16    1
    28    15    34    1
    29    16    22   ar
    30    16    17   ar
    31    17    18   ar
    32    17    35    1
    33    18    19   ar
    34    18    36    1
    35    19    20    1
    36    19    21   ar
    37    21    22   ar
    38    21    37    1
    39    22    38    1
    40    23    39    1
@<TRIPOS>SUBSTRUCTURE
     1 ZINC000763800048        1 TEMP              0 ****  ****    0 ROOT


##########                                Name:    ZINC000467104849
##########                DOCK_Rotatable_Bonds:                   6
##########                         Heavy_Atoms:                  29
##########                    Molecular_Weight:             421.896
##########                DOCK_Rotatable_Bonds:                   6
##########                       Formal_Charge:           0.0200002
##########                     HBond_Acceptors:                   7
##########                        HBond_Donors:                   0
##########                         Heavy_Atoms:                  29
##########                          Grid_Score:          -26.378716
##########                     Grid_vdw_energy:          -26.057413
##########                      Grid_es_energy:           -0.321303
##########           Internal_energy_repulsive:          103.331772

@<TRIPOS>MOLECULE
ZINC000467104849
 54 56 1 0 0
SMALL
USER_CHARGES


@<TRIPOS>ATOM
      1 C1        -10.4389    4.2970   57.7904 C.3     1  ZINC000467104849    0.0200
      2 O2         -9.4912    3.2310   57.8778 O.3     1  ZINC000467104849   -0.3000
      3 C3         -9.9724    2.0026   58.2080 C.ar    1  ZINC000467104849    0.1000
      4 C4        -11.3262    1.8276   58.4432 C.ar    1  ZINC000467104849   -0.1700
      5 C5        -11.8139    0.5779   58.7785 C.ar    1  ZINC000467104849   -0.1200
      6 C6        -10.9532   -0.4987   58.8802 C.ar    1  ZINC000467104849   -0.0800
      7 C7        -11.4898   -1.8585   59.2463 C.3     1  ZINC000467104849   -0.0400
      8 C8        -10.5243   -2.9378   58.7526 C.3     1  ZINC000467104849   -0.1300
      9 C9        -11.6322   -1.9582   60.7664 C.3     1  ZINC000467104849   -0.1600
     10 C10       -12.8373   -2.0570   58.6015 C.2     1  ZINC000467104849    0.5300
     11 O11       -13.8039   -2.3203   59.2851 O.2     1  ZINC000467104849   -0.5300
     12 N12       -12.9683   -1.9419   57.2651 N.am    1  ZINC000467104849   -0.6100
     13 C13       -14.2737   -2.1313   56.6128 C.3     1  ZINC000467104849    0.0600
     14 C14       -14.5320   -0.9340   55.6912 C.3     1  ZINC000467104849    0.0500
     15 O15       -13.4091   -0.7562   54.8245 O.3     1  ZINC000467104849   -0.3700
     16 C16       -12.1886   -0.4499   55.5031 C.3     1  ZINC000467104849    0.1300
     17 H17       -12.3218    0.4499   56.1036 H       1  ZINC000467104849    0.0800
     18 C18       -11.0939   -0.2233   54.4925 C.ar    1  ZINC000467104849   -0.0900
     19 C19       -11.1098   -0.9084   53.2921 C.ar    1  ZINC000467104849   -0.0500
     20 C20       -10.1064   -0.7019   52.3639 C.ar    1  ZINC000467104849   -0.1400
     21 C21        -9.0853    0.1919   52.6363 C.ar    1  ZINC000467104849    0.1200
     22 F22        -8.1045    0.3948   51.7297 F       1  ZINC000467104849   -0.1200
     23 C23        -9.0702    0.8787   53.8400 C.ar    1  ZINC000467104849   -0.0800
     24 Cl24       -7.7905    2.0003   54.1840 Cl      1  ZINC000467104849   -0.0400
     25 C25       -10.0778    0.6737   54.7646 C.ar    1  ZINC000467104849   -0.0700
     26 C26       -11.8115   -1.6171   56.4156 C.3     1  ZINC000467104849    0.0900
     27 C27        -9.6005   -0.3310   58.6462 C.ar    1  ZINC000467104849   -0.1600
     28 C28        -9.1063    0.9172   58.3048 C.ar    1  ZINC000467104849    0.1100
     29 O29        -7.7764    1.0838   58.0744 O.3     1  ZINC000467104849   -0.3000
     30 C30        -7.3349    2.4028   57.7466 C.3     1  ZINC000467104849    0.0200
     31 H31        -9.9246    5.2191   57.5201 H       1  ZINC000467104849    0.1000
     32 H32       -11.1833    4.0599   57.0302 H       1  ZINC000467104849    0.0600
     33 H33       -10.9319    4.4248   58.7540 H       1  ZINC000467104849    0.0600
     34 H34       -12.0008    2.6674   58.3652 H       1  ZINC000467104849    0.1400
     35 H35       -12.8696    0.4427   58.9616 H       1  ZINC000467104849    0.1300
     36 H36        -9.5769   -2.8486   59.2844 H       1  ZINC000467104849    0.0700
     37 H37       -10.9539   -3.9222   58.9383 H       1  ZINC000467104849    0.0700
     38 H38       -10.3540   -2.8115   57.6834 H       1  ZINC000467104849    0.0700
     39 H39       -12.3863   -1.2492   61.1081 H       1  ZINC000467104849    0.0700
     40 H40       -11.9351   -2.9696   61.0374 H       1  ZINC000467104849    0.0700
     41 H41       -10.6765   -1.7269   61.2367 H       1  ZINC000467104849    0.0700
     42 H42       -14.2612   -3.0500   56.0262 H       1  ZINC000467104849    0.0800
     43 H43       -15.0570   -2.1885   57.3687 H       1  ZINC000467104849    0.1100
     44 H44       -15.4259   -1.1191   55.0956 H       1  ZINC000467104849    0.1100
     45 H45       -14.6737   -0.0357   56.2923 H       1  ZINC000467104849    0.0600
     46 H46       -11.9064   -1.6058   53.0793 H       1  ZINC000467104849    0.1500
     47 H47       -10.1191   -1.2380   51.4265 H       1  ZINC000467104849    0.1500
     48 H48       -10.0668    1.2089   55.7026 H       1  ZINC000467104849    0.1500
     49 H49       -10.9633   -1.3357   57.0399 H       1  ZINC000467104849    0.1100
     50 H50       -11.5510   -2.4862   55.8116 H       1  ZINC000467104849    0.0800
     51 H51        -8.9301   -1.1739   58.7262 H       1  ZINC000467104849    0.1400
     52 H52        -7.8339    2.7374   56.8371 H       1  ZINC000467104849    0.0600
     53 H53        -7.5777    3.0810   58.5647 H       1  ZINC000467104849    0.0600
     54 H54        -6.2566    2.3961   57.5881 H       1  ZINC000467104849    0.1000
@<TRIPOS>BOND
     1     1     2    1
     2     1    31    1
     3     1    32    1
     4     1    33    1
     5     2     3    1
     6     3    28   ar
     7     3     4   ar
     8     4     5   ar
     9     4    34    1
    10     5     6   ar
    11     5    35    1
    12     6     7    1
    13     6    27   ar
    14     7     8    1
    15     7     9    1
    16     7    10    1
    17     8    36    1
    18     8    37    1
    19     8    38    1
    20     9    39    1
    21     9    40    1
    22     9    41    1
    23    10    11    2
    24    10    12   am
    25    12    26    1
    26    12    13    1
    27    13    14    1
    28    13    42    1
    29    13    43    1
    30    14    15    1
    31    14    44    1
    32    14    45    1
    33    15    16    1
    34    16    17    1
    35    16    18    1
    36    16    26    1
    37    18    25   ar
    38    18    19   ar
    39    19    20   ar
    40    19    46    1
    41    20    21   ar
    42    20    47    1
    43    21    22    1
    44    21    23   ar
    45    23    24    1
    46    23    25   ar
    47    25    48    1
    48    26    49    1
    49    26    50    1
    50    27    28   ar
    51    27    51    1
    52    28    29    1
    53    29    30    1
    54    30    52    1
    55    30    53    1
    56    30    54    1
@<TRIPOS>SUBSTRUCTURE
     1 ZINC000467104849        1 TEMP              0 ****  ****    0 ROOT


##########                                Name:    ZINC001179023006
##########                DOCK_Rotatable_Bonds:                   3
##########                         Heavy_Atoms:                  25
##########                    Molecular_Weight:             340.465
##########                DOCK_Rotatable_Bonds:                   3
##########                       Formal_Charge:          -0.0100005
##########                     HBond_Acceptors:                   4
##########                        HBond_Donors:                   1
##########                         Heavy_Atoms:                  25
##########                          Grid_Score:          -26.374704
##########                     Grid_vdw_energy:          -26.369717
##########                      Grid_es_energy:           -0.004987
##########           Internal_energy_repulsive:           27.327393

@<TRIPOS>MOLECULE
ZINC001179023006
 53 56 1 0 0
SMALL
USER_CHARGES


@<TRIPOS>ATOM
      1 C1         -8.9405    0.3227   62.8800 C.3     1  ZINC001179023006   -0.1500
      2 C2        -10.1460    0.8243   62.0826 C.3     1  ZINC001179023006   -0.1100
      3 C3         -9.8065    0.8239   60.5907 C.3     1  ZINC001179023006   -0.1100
      4 C4         -9.9700   -0.5319   59.9537 C.2     1  ZINC001179023006    0.5400
      5 O5         -8.9995   -1.1253   59.5330 O.2     1  ZINC001179023006   -0.5400
      6 N6        -11.1947   -1.0853   59.8515 N.am    1  ZINC001179023006   -0.5900
      7 C7        -11.3716   -2.4037   59.2278 C.3     1  ZINC001179023006    0.1000
      8 C8        -12.4246   -2.2975   58.1272 C.3     1  ZINC001179023006   -0.1200
      9 C9        -13.7164   -1.7120   58.7159 C.3     1  ZINC001179023006   -0.0500
     10 C10       -13.4203   -0.2974   59.2355 C.3     1  ZINC001179023006   -0.1100
     11 C11       -12.3804   -0.3798   60.3563 C.3     1  ZINC001179023006    0.0900
     12 C12       -14.7675   -1.6270   57.6205 C.3     1  ZINC001179023006   -0.0800
     13 C13       -15.0191   -2.9625   56.9903 C.ar    1  ZINC001179023006   -0.0700
     14 C14       -14.5410   -3.1915   55.7040 C.ar    1  ZINC001179023006   -0.1100
     15 C15       -14.7019   -4.4324   55.1197 C.ar    1  ZINC001179023006   -0.1100
     16 C16       -15.3380   -5.4488   55.8073 C.ar    1  ZINC001179023006   -0.1200
     17 C17       -15.8251   -5.2139   57.0808 C.ar    1  ZINC001179023006   -0.1000
     18 C18       -15.6659   -3.9638   57.6520 C.ar    1  ZINC001179023006   -0.1100
     19 C19       -16.2197   -3.6940   59.0278 C.3     1  ZINC001179023006    0.1400
     20 N20       -15.1689   -3.4010   59.9771 N.am    1  ZINC001179023006   -0.7000
     21 C21       -14.1672   -2.5682   59.8571 C.2     1  ZINC001179023006    0.5200
     22 O22       -13.4789   -2.4732   60.8510 O.2     1  ZINC001179023006   -0.5500
     23 C23        -8.4645    1.5002   60.2641 C.3     1  ZINC001179023006   -0.1200
     24 C24        -9.1614    2.1062   59.0323 C.3     1  ZINC001179023006   -0.1400
     25 C25       -10.4831    1.9594   59.8047 C.3     1  ZINC001179023006   -0.1300
     26 H26        -9.1951    0.2865   63.9392 H       1  ZINC001179023006    0.0600
     27 H27        -8.6682   -0.6756   62.5374 H       1  ZINC001179023006    0.0500
     28 H28        -8.0992    0.9998   62.7314 H       1  ZINC001179023006    0.0600
     29 H29       -10.3944    1.8375   62.3984 H       1  ZINC001179023006    0.0700
     30 H30       -10.9982    0.1687   62.2614 H       1  ZINC001179023006    0.0700
     31 H31       -10.4265   -2.7335   58.7965 H       1  ZINC001179023006    0.0900
     32 H32       -11.7029   -3.1214   59.9783 H       1  ZINC001179023006    0.0800
     33 H33       -12.6267   -3.2874   57.7184 H       1  ZINC001179023006    0.0800
     34 H34       -12.0568   -1.6447   57.3356 H       1  ZINC001179023006    0.0800
     35 H35       -14.3372    0.1480   59.6216 H       1  ZINC001179023006    0.0800
     36 H36       -13.0318    0.3160   58.4226 H       1  ZINC001179023006    0.0800
     37 H37       -12.7977   -0.9256   61.2025 H       1  ZINC001179023006    0.1200
     38 H38       -12.1010    0.6261   60.6700 H       1  ZINC001179023006    0.0800
     39 H39       -15.6983   -1.2549   58.0489 H       1  ZINC001179023006    0.0800
     40 H40       -14.4271   -0.9307   56.8541 H       1  ZINC001179023006    0.0900
     41 H41       -14.0441   -2.3997   55.1632 H       1  ZINC001179023006    0.1200
     42 H42       -14.3295   -4.6092   54.1215 H       1  ZINC001179023006    0.1200
     43 H43       -15.4540   -6.4215   55.3527 H       1  ZINC001179023006    0.1300
     44 H44       -16.3262   -6.0007   57.6251 H       1  ZINC001179023006    0.1300
     45 H45       -16.7717   -4.5704   59.3675 H       1  ZINC001179023006    0.0900
     46 H46       -16.9004   -2.8441   58.9770 H       1  ZINC001179023006    0.0800
     47 H47       -15.2125   -3.8875   60.8151 H       1  ZINC001179023006    0.4000
     48 H48        -8.1585    2.2420   61.0016 H       1  ZINC001179023006    0.0900
     49 H49        -7.6702    0.7965   60.0153 H       1  ZINC001179023006    0.0800
     50 H50        -9.1021    1.4763   58.1448 H       1  ZINC001179023006    0.0800
     51 H51        -8.8833    3.1416   58.8358 H       1  ZINC001179023006    0.0700
     52 H52       -11.3159    1.6260   59.1855 H       1  ZINC001179023006    0.0700
     53 H53       -10.7300    2.8272   60.4165 H       1  ZINC001179023006    0.0900
@<TRIPOS>BOND
     1     1     2    1
     2     1    26    1
     3     1    27    1
     4     1    28    1
     5     2     3    1
     6     2    29    1
     7     2    30    1
     8     3    25    1
     9     3     4    1
    10     3    23    1
    11     4     5    2
    12     4     6   am
    13     6    11    1
    14     6     7    1
    15     7     8    1
    16     7    31    1
    17     7    32    1
    18     8     9    1
    19     8    33    1
    20     8    34    1
    21     9    21    1
    22     9    10    1
    23     9    12    1
    24    10    11    1
    25    10    35    1
    26    10    36    1
    27    11    37    1
    28    11    38    1
    29    12    13    1
    30    12    39    1
    31    12    40    1
    32    13    18   ar
    33    13    14   ar
    34    14    15   ar
    35    14    41    1
    36    15    16   ar
    37    15    42    1
    38    16    17   ar
    39    16    43    1
    40    17    18   ar
    41    17    44    1
    42    18    19    1
    43    19    20    1
    44    19    45    1
    45    19    46    1
    46    20    21   am
    47    20    47    1
    48    21    22    2
    49    23    24    1
    50    23    48    1
    51    23    49    1
    52    24    25    1
    53    24    50    1
    54    24    51    1
    55    25    52    1
    56    25    53    1
@<TRIPOS>SUBSTRUCTURE
     1 ZINC001179023006        1 TEMP              0 ****  ****    0 ROOT


##########                                Name:    ZINC001162683355
##########                DOCK_Rotatable_Bonds:                   5
##########                         Heavy_Atoms:                  25
##########                    Molecular_Weight:             336.437
##########                DOCK_Rotatable_Bonds:                   5
##########                       Formal_Charge:          -0.0100002
##########                     HBond_Acceptors:                   5
##########                        HBond_Donors:                   1
##########                         Heavy_Atoms:                  25
##########                          Grid_Score:          -26.351894
##########                     Grid_vdw_energy:          -26.006613
##########                      Grid_es_energy:           -0.345281
##########           Internal_energy_repulsive:           11.401660

@<TRIPOS>MOLECULE
ZINC001162683355
 49 52 1 0 0
SMALL
USER_CHARGES


@<TRIPOS>ATOM
      1 C1        -15.3865   -6.1934   56.1494 C.3     1  ZINC001162683355    0.0200
      2 N2        -15.7269   -4.7672   56.2392 N.3     1  ZINC001162683355   -0.5400
      3 C3        -15.1266   -4.0114   55.1302 C.3     1  ZINC001162683355    0.0100
      4 C4        -15.5545   -2.5447   55.2287 C.3     1  ZINC001162683355    0.0600
      5 O5        -15.1731   -2.0268   56.5060 O.3     1  ZINC001162683355   -0.3800
      6 C6        -15.7404   -2.7390   57.6089 C.3     1  ZINC001162683355    0.0800
      7 H7        -16.8276   -2.6721   57.5648 H       1  ZINC001162683355    0.0700
      8 C8        -15.2439   -2.1287   58.9210 C.3     1  ZINC001162683355    0.1500
      9 N9        -13.8357   -1.7498   58.7813 N.pl3   1  ZINC001162683355   -0.7300
     10 C10       -13.1633   -1.1666   59.8496 C.ar    1  ZINC001162683355    0.4300
     11 C11       -11.7671   -1.1838   59.8877 C.ar    1  ZINC001162683355   -0.0100
     12 C12       -11.1188   -0.5843   60.9830 C.ar    1  ZINC001162683355   -0.0400
     13 C13       -11.8991    0.0037   61.9875 C.ar    1  ZINC001162683355   -0.1800
     14 C14       -13.2581   -0.0261   61.8680 C.ar    1  ZINC001162683355    0.1000
     15 N15       -13.8471   -0.5962   60.8278 N.ar    1  ZINC001162683355   -0.5400
     16 C16        -9.6877   -0.7545   60.7504 C.2     1  ZINC001162683355   -0.2200
     17 C17        -9.5552   -1.4192   59.5887 C.2     1  ZINC001162683355    0.0800
     18 N18       -10.7867   -1.6783   59.0580 N.pl3   1  ZINC001162683355   -0.4600
     19 C19       -11.0283   -2.3831   57.7966 C.3     1  ZINC001162683355    0.1500
     20 C20       -11.1491   -1.3817   56.6768 C.ar    1  ZINC001162683355   -0.1100
     21 C21       -10.6046   -0.1189   56.8173 C.ar    1  ZINC001162683355   -0.1000
     22 C22       -10.7116    0.7982   55.7885 C.ar    1  ZINC001162683355   -0.1200
     23 C23       -11.3710    0.4555   54.6229 C.ar    1  ZINC001162683355   -0.1100
     24 C24       -11.9200   -0.8056   54.4845 C.ar    1  ZINC001162683355   -0.1200
     25 C25       -11.8092   -1.7241   55.5116 C.ar    1  ZINC001162683355   -0.1000
     26 C26       -15.3144   -4.2076   57.5345 C.3     1  ZINC001162683355    0.0300
     27 H27       -14.3094   -6.3176   56.2620 H       1  ZINC001162683355    0.0300
     28 H28       -15.8999   -6.7400   56.9404 H       1  ZINC001162683355    0.0700
     29 H29       -15.6975   -6.5808   55.1791 H       1  ZINC001162683355    0.0700
     30 H30       -15.4656   -4.4266   54.1812 H       1  ZINC001162683355    0.0900
     31 H31       -14.0402   -4.0784   55.1902 H       1  ZINC001162683355    0.0500
     32 H32       -16.6362   -2.4729   55.1149 H       1  ZINC001162683355    0.0600
     33 H33       -15.0667   -1.9691   54.4420 H       1  ZINC001162683355    0.1000
     34 H34       -15.3455   -2.8597   59.7231 H       1  ZINC001162683355    0.0700
     35 H35       -15.8363   -1.2448   59.1578 H       1  ZINC001162683355    0.0800
     36 H36       -13.3724   -1.9056   57.9435 H       1  ZINC001162683355    0.4000
     37 H37       -11.4330    0.4727   62.8415 H       1  ZINC001162683355    0.1300
     38 H38       -13.8663    0.4253   62.6378 H       1  ZINC001162683355    0.1500
     39 H39        -8.8876   -0.4154   61.3917 H       1  ZINC001162683355    0.1500
     40 H40        -8.6146   -1.7037   59.1408 H       1  ZINC001162683355    0.1700
     41 H41       -11.9519   -2.9570   57.8721 H       1  ZINC001162683355    0.0900
     42 H42       -10.1969   -3.0579   57.5925 H       1  ZINC001162683355    0.0900
     43 H43       -10.0927    0.1501   57.7295 H       1  ZINC001162683355    0.1200
     44 H44       -10.2824    1.7833   55.8964 H       1  ZINC001162683355    0.1300
     45 H45       -11.4568    1.1729   53.8202 H       1  ZINC001162683355    0.1300
     46 H46       -12.4351   -1.0733   53.5739 H       1  ZINC001162683355    0.1300
     47 H47       -12.2382   -2.7094   55.4035 H       1  ZINC001162683355    0.1200
     48 H48       -14.2311   -4.2777   57.6329 H       1  ZINC001162683355    0.0500
     49 H49       -15.7906   -4.7660   58.3405 H       1  ZINC001162683355    0.0900
@<TRIPOS>BOND
     1     1     2    1
     2     1    27    1
     3     1    28    1
     4     1    29    1
     5     2    26    1
     6     2     3    1
     7     3     4    1
     8     3    30    1
     9     3    31    1
    10     4     5    1
    11     4    32    1
    12     4    33    1
    13     5     6    1
    14     6     7    1
    15     6     8    1
    16     6    26    1
    17     8     9    1
    18     8    34    1
    19     8    35    1
    20     9    10    1
    21     9    36    1
    22    10    15   ar
    23    10    11   ar
    24    11    18    1
    25    11    12   ar
    26    12    13   ar
    27    12    16    1
    28    13    14   ar
    29    13    37    1
    30    14    15   ar
    31    14    38    1
    32    16    17    2
    33    16    39    1
    34    17    18    1
    35    17    40    1
    36    18    19    1
    37    19    20    1
    38    19    41    1
    39    19    42    1
    40    20    25   ar
    41    20    21   ar
    42    21    22   ar
    43    21    43    1
    44    22    23   ar
    45    22    44    1
    46    23    24   ar
    47    23    45    1
    48    24    25   ar
    49    24    46    1
    50    25    47    1
    51    26    48    1
    52    26    49    1
@<TRIPOS>SUBSTRUCTURE
     1 ZINC001162683355        1 TEMP              0 ****  ****    0 ROOT


##########                                Name:    ZINC000274225049
##########                DOCK_Rotatable_Bonds:                   6
##########                         Heavy_Atoms:                  25
##########                    Molecular_Weight:             380.895
##########                DOCK_Rotatable_Bonds:                   6
##########                       Formal_Charge:           0.0200006
##########                     HBond_Acceptors:                   7
##########                        HBond_Donors:                   2
##########                         Heavy_Atoms:                  25
##########                          Grid_Score:          -26.351601
##########                     Grid_vdw_energy:          -26.792393
##########                      Grid_es_energy:            0.440792
##########           Internal_energy_repulsive:           10.891540

@<TRIPOS>MOLECULE
ZINC000274225049
 46 48 1 0 0
SMALL
USER_CHARGES


@<TRIPOS>ATOM
      1 C1         -6.9784    4.2993   54.1058 C.3     1  ZINC000274225049   -0.1600
      2 C2         -6.1928    3.0587   54.5353 C.3     1  ZINC000274225049    0.2000
      3 H3         -6.4319    2.2289   53.8702 H       1  ZINC000274225049    0.1100
      4 N4         -6.5549    2.7030   55.9095 N.am    1  ZINC000274225049   -0.7400
      5 C5         -7.6530    1.9581   56.1458 C.2     1  ZINC000274225049    0.7100
      6 O6         -8.3423    1.5803   55.2182 O.2     1  ZINC000274225049   -0.5800
      7 N7         -7.9870    1.6322   57.4101 N.am    1  ZINC000274225049   -0.7500
      8 C8         -9.1797    0.8212   57.6668 C.3     1  ZINC000274225049    0.1500
      9 C9         -9.0051    0.0595   58.9823 C.3     1  ZINC000274225049   -0.1000
     10 H10        -8.0421   -0.4509   58.9928 H       1  ZINC000274225049    0.1000
     11 C11       -10.1441   -0.9604   59.1557 C.3     1  ZINC000274225049   -0.1100
     12 C12       -10.1414   -1.4613   60.6138 C.3     1  ZINC000274225049   -0.5900
     13 S13        -9.4351   -0.0842   61.5889 S.o2    1  ZINC000274225049    2.3900
     14 O14       -10.4483    0.4792   62.4105 O.2     1  ZINC000274225049   -0.9300
     15 O15        -8.2047   -0.4987   62.1665 O.2     1  ZINC000274225049   -0.9300
     16 C16        -9.0997    1.0397   60.1799 C.3     1  ZINC000274225049   -0.5900
     17 C17        -4.7159    3.3499   54.4642 C.ar    1  ZINC000274225049   -0.0700
     18 C18        -4.0231    3.1936   53.2520 C.ar    1  ZINC000274225049   -0.0300
     19 C19        -4.6805    2.7665   52.0855 C.ar    1  ZINC000274225049   -0.1100
     20 C20        -3.9771    2.6267   50.9290 C.ar    1  ZINC000274225049   -0.1100
     21 C21        -2.6113    2.9009   50.8820 C.ar    1  ZINC000274225049   -0.1100
     22 C22        -1.9416    3.3166   51.9915 C.ar    1  ZINC000274225049   -0.1000
     23 C23        -2.6343    3.4726   53.2042 C.ar    1  ZINC000274225049   -0.0400
     24 C24        -1.9768    3.9004   54.3711 C.ar    1  ZINC000274225049   -0.0300
     25 Cl25       -0.2764    4.2488   54.3371 Cl      1  ZINC000274225049   -0.0600
     26 C26        -2.6817    4.0405   55.5286 C.ar    1  ZINC000274225049   -0.1000
     27 C27        -4.0477    3.7710   55.5732 C.ar    1  ZINC000274225049   -0.1000
     28 H28        -8.0466    4.0888   54.1570 H       1  ZINC000274225049    0.0700
     29 H29        -6.7393    5.1291   54.7709 H       1  ZINC000274225049    0.0700
     30 H30        -6.7090    4.5640   53.0832 H       1  ZINC000274225049    0.0800
     31 H31        -6.0043    3.0035   56.6494 H       1  ZINC000274225049    0.4000
     32 H32        -7.4377    1.9347   58.1502 H       1  ZINC000274225049    0.4000
     33 H33       -10.0526    1.4704   57.7359 H       1  ZINC000274225049    0.0800
     34 H34        -9.3185    0.1111   56.8515 H       1  ZINC000274225049    0.0800
     35 H35       -11.0992   -0.4845   58.9336 H       1  ZINC000274225049    0.0900
     36 H36        -9.9895   -1.8010   58.4792 H       1  ZINC000274225049    0.0900
     37 H37       -11.1584   -1.6751   60.9425 H       1  ZINC000274225049    0.1400
     38 H38        -9.5176   -2.3502   60.7075 H       1  ZINC000274225049    0.1400
     39 H39        -8.1579    1.5693   60.3232 H       1  ZINC000274225049    0.1400
     40 H40        -9.9220    1.7415   60.0405 H       1  ZINC000274225049    0.1400
     41 H41        -5.7384    2.5500   52.1070 H       1  ZINC000274225049    0.1300
     42 H42        -4.4846    2.2979   50.0341 H       1  ZINC000274225049    0.1300
     43 H43        -2.0765    2.7816   49.9514 H       1  ZINC000274225049    0.1300
     44 H44        -0.8831    3.5250   51.9403 H       1  ZINC000274225049    0.1300
     45 H45        -2.1747    4.3689   56.4238 H       1  ZINC000274225049    0.1300
     46 H46        -4.5831    3.8900   56.5035 H       1  ZINC000274225049    0.1300
@<TRIPOS>BOND
     1     1     2    1
     2     1    28    1
     3     1    29    1
     4     1    30    1
     5     2     3    1
     6     2     4    1
     7     2    17    1
     8     4     5   am
     9     4    31    1
    10     5     6    2
    11     5     7   am
    12     7     8    1
    13     7    32    1
    14     8     9    1
    15     8    33    1
    16     8    34    1
    17     9    10    1
    18     9    16    1
    19     9    11    1
    20    11    12    1
    21    11    35    1
    22    11    36    1
    23    12    13    1
    24    12    37    1
    25    12    38    1
    26    13    14    2
    27    13    15    2
    28    13    16    1
    29    16    39    1
    30    16    40    1
    31    17    27   ar
    32    17    18   ar
    33    18    23   ar
    34    18    19   ar
    35    19    20   ar
    36    19    41    1
    37    20    21   ar
    38    20    42    1
    39    21    22   ar
    40    21    43    1
    41    22    23   ar
    42    22    44    1
    43    23    24   ar
    44    24    25    1
    45    24    26   ar
    46    26    27   ar
    47    26    45    1
    48    27    46    1
@<TRIPOS>SUBSTRUCTURE
     1 ZINC000274225049        1 TEMP              0 ****  ****    0 ROOT


##########                                Name:    ZINC001045438664
##########                DOCK_Rotatable_Bonds:                   6
##########                         Heavy_Atoms:                  26
##########                    Molecular_Weight:             352.439
##########                DOCK_Rotatable_Bonds:                   6
##########                       Formal_Charge:          -0.0099999
##########                     HBond_Acceptors:                   7
##########                        HBond_Donors:                   2
##########                         Heavy_Atoms:                  26
##########                          Grid_Score:          -26.345587
##########                     Grid_vdw_energy:          -25.812462
##########                      Grid_es_energy:           -0.533124
##########           Internal_energy_repulsive:           21.757490

@<TRIPOS>MOLECULE
ZINC001045438664
 50 53 1 0 0
SMALL
USER_CHARGES


@<TRIPOS>ATOM
      1 C1        -11.4505   -2.2550   59.4967 C.3     1  ZINC001045438664   -0.1100
      2 C2        -10.2919   -1.3025   59.6435 C.ar    1  ZINC001045438664    0.2100
      3 C3         -9.7908   -0.6370   58.5425 C.ar    1  ZINC001045438664   -0.3000
      4 C4         -8.7164    0.2360   58.7278 C.ar    1  ZINC001045438664    0.4500
      5 N5         -8.1783    0.9276   57.6549 N.pl3   1  ZINC001045438664   -0.7100
      6 C6         -8.6846    2.2592   57.3134 C.3     1  ZINC001045438664    0.1500
      7 H7         -8.2903    2.9899   58.0197 H       1  ZINC001045438664    0.0900
      8 C8        -10.2130    2.2568   57.3821 C.3     1  ZINC001045438664   -0.1300
      9 C9        -10.7417    3.6476   57.0256 C.3     1  ZINC001045438664   -0.1200
     10 C10       -10.2954    4.0151   55.6091 C.3     1  ZINC001045438664   -0.1200
     11 C11        -8.7669    4.0176   55.5404 C.3     1  ZINC001045438664   -0.1300
     12 C12        -8.2383    2.6268   55.8969 C.3     1  ZINC001045438664    0.1400
     13 H13        -8.6325    1.8962   55.1907 H       1  ZINC001045438664    0.1000
     14 N14        -6.7748    2.6291   55.8312 N.am    1  ZINC001045438664   -0.7200
     15 C15        -6.0645    3.4253   56.6546 C.2     1  ZINC001045438664    0.5700
     16 O16        -6.6383    4.1426   57.4507 O.2     1  ZINC001045438664   -0.5200
     17 C17        -4.5876    3.4264   56.5895 C.ar    1  ZINC001045438664   -0.2500
     18 C18        -3.9083    2.6458   55.6473 C.ar    1  ZINC001045438664    0.1900
     19 N19        -2.5874    2.6774   55.6241 N.ar    1  ZINC001045438664   -0.5200
     20 C20        -1.9117    3.4290   56.4711 C.ar    1  ZINC001045438664    0.3200
     21 N21        -2.5114    4.1791   57.3747 N.ar    1  ZINC001045438664   -0.5200
     22 C22        -3.8294    4.2125   57.4646 C.ar    1  ZINC001045438664    0.2100
     23 N23        -8.2189    0.3931   59.9509 N.ar    1  ZINC001045438664   -0.5800
     24 C24        -8.7288   -0.2628   60.9737 C.ar    1  ZINC001045438664    0.4000
     25 C25        -8.1371   -0.0571   62.3444 C.3     1  ZINC001045438664   -0.1100
     26 C26        -8.2389    1.3420   62.9550 C.3     1  ZINC001045438664   -0.1500
     27 C27        -9.1054    0.2048   63.4997 C.3     1  ZINC001045438664   -0.1500
     28 N28        -9.7451   -1.0894   60.8324 N.ar    1  ZINC001045438664   -0.5600
     29 H29       -12.3865   -1.7112   59.6247 H       1  ZINC001045438664    0.0800
     30 H30       -11.4258   -2.7073   58.5053 H       1  ZINC001045438664    0.0800
     31 H31       -11.3774   -3.0355   60.2541 H       1  ZINC001045438664    0.0800
     32 H32       -10.2185   -0.7880   57.5624 H       1  ZINC001045438664    0.1400
     33 H33        -7.4663    0.5299   57.1295 H       1  ZINC001045438664    0.4100
     34 H34       -10.6073    1.5262   56.6759 H       1  ZINC001045438664    0.0700
     35 H35       -10.5309    1.9950   58.3914 H       1  ZINC001045438664    0.0700
     36 H36       -11.8306    3.6459   57.0745 H       1  ZINC001045438664    0.0700
     37 H37       -10.3474    4.3782   57.7318 H       1  ZINC001045438664    0.0700
     38 H38       -10.6897    3.2845   54.9028 H       1  ZINC001045438664    0.0700
     39 H39       -10.6721    5.0060   55.3550 H       1  ZINC001045438664    0.0700
     40 H40        -8.4491    4.2794   54.5311 H       1  ZINC001045438664    0.0800
     41 H41        -8.3727    4.7482   56.2466 H       1  ZINC001045438664    0.0700
     42 H42        -6.3169    2.0576   55.1950 H       1  ZINC001045438664    0.4000
     43 H43        -4.4548    2.0274   54.9506 H       1  ZINC001045438664    0.1700
     44 H44        -0.8327    3.4301   56.4233 H       1  ZINC001045438664    0.2100
     45 H45        -4.3133    4.8293   58.2074 H       1  ZINC001045438664    0.1800
     46 H46        -7.2402   -0.6373   62.5611 H       1  ZINC001045438664    0.1300
     47 H47        -7.4085    1.6827   63.5736 H       1  ZINC001045438664    0.1000
     48 H48        -8.7337    2.1138   62.3655 H       1  ZINC001045438664    0.1100
     49 H49       -10.1703    0.2283   63.2685 H       1  ZINC001045438664    0.1000
     50 H50        -8.8451   -0.2028   64.4767 H       1  ZINC001045438664    0.1000
@<TRIPOS>BOND
     1     1     2    1
     2     1    29    1
     3     1    30    1
     4     1    31    1
     5     2    28   ar
     6     2     3   ar
     7     3     4   ar
     8     3    32    1
     9     4     5    1
    10     4    23   ar
    11     5     6    1
    12     5    33    1
    13     6     7    1
    14     6    12    1
    15     6     8    1
    16     8     9    1
    17     8    34    1
    18     8    35    1
    19     9    10    1
    20     9    36    1
    21     9    37    1
    22    10    11    1
    23    10    38    1
    24    10    39    1
    25    11    12    1
    26    11    40    1
    27    11    41    1
    28    12    13    1
    29    12    14    1
    30    14    15   am
    31    14    42    1
    32    15    16    2
    33    15    17    1
    34    17    22   ar
    35    17    18   ar
    36    18    19   ar
    37    18    43    1
    38    19    20   ar
    39    20    21   ar
    40    20    44    1
    41    21    22   ar
    42    22    45    1
    43    23    24   ar
    44    24    25    1
    45    24    28   ar
    46    25    27    1
    47    25    26    1
    48    25    46    1
    49    26    27    1
    50    26    47    1
    51    26    48    1
    52    27    49    1
    53    27    50    1
@<TRIPOS>SUBSTRUCTURE
     1 ZINC001045438664        1 TEMP              0 ****  ****    0 ROOT


##########                                Name:    ZINC000426037318
##########                DOCK_Rotatable_Bonds:                   7
##########                         Heavy_Atoms:                  28
##########                    Molecular_Weight:             421.904
##########                DOCK_Rotatable_Bonds:                   7
##########                       Formal_Charge:         -0.00999981
##########                     HBond_Acceptors:                   9
##########                        HBond_Donors:                   1
##########                         Heavy_Atoms:                  28
##########                          Grid_Score:          -26.335165
##########                     Grid_vdw_energy:          -26.013771
##########                      Grid_es_energy:           -0.321393
##########           Internal_energy_repulsive:           18.933372

@<TRIPOS>MOLECULE
ZINC000426037318
 48 50 1 0 0
SMALL
USER_CHARGES


@<TRIPOS>ATOM
      1 C1         -9.5857    2.7470   60.1538 C.3     1  ZINC000426037318    0.0300
      2 O2         -9.5779    2.8030   58.7260 O.3     1  ZINC000426037318   -0.3800
      3 C3         -9.3522    1.5404   58.0959 C.3     1  ZINC000426037318    0.1300
      4 C4         -8.5880    1.7482   56.8139 C.ar    1  ZINC000426037318    0.3900
      5 N5         -9.1301    1.3530   55.6760 N.ar    1  ZINC000426037318   -0.5700
      6 C6         -8.5021    1.5123   54.5233 C.ar    1  ZINC000426037318    0.4400
      7 O7         -9.0733    1.1016   53.3671 O.3     1  ZINC000426037318   -0.2800
      8 C8         -9.0663   -0.3027   53.1031 C.3     1  ZINC000426037318    0.0300
      9 C9         -7.2183    2.1217   54.5169 C.ar    1  ZINC000426037318   -0.2000
     10 C10        -6.3602    2.4004   53.4469 C.2     1  ZINC000426037318    0.0500
     11 C11        -6.7147    2.0602   52.0222 C.3     1  ZINC000426037318   -0.1200
     12 C12        -5.2036    2.9896   53.7741 C.2     1  ZINC000426037318   -0.2700
     13 C13        -4.1597    3.3703   52.8144 C.2     1  ZINC000426037318    0.6000
     14 O14        -4.3851    4.2242   51.9772 O.2     1  ZINC000426037318   -0.5000
     15 N15        -2.9520    2.7741   52.8607 N.am    1  ZINC000426037318   -0.6600
     16 C16        -1.9560    3.1373   51.9450 C.ar    1  ZINC000426037318    0.1200
     17 C17        -1.9984    2.6539   50.6446 C.ar    1  ZINC000426037318   -0.0700
     18 C18        -1.0162    3.0128   49.7421 C.ar    1  ZINC000426037318   -0.0900
     19 C19        -1.0628    2.4882   48.3302 C.3     1  ZINC000426037318   -0.1100
     20 C20         0.0126    3.8561   50.1346 C.ar    1  ZINC000426037318    0.1300
     21 O21         0.9786    4.2090   49.2451 O.3     1  ZINC000426037318   -0.3100
     22 C22         2.0087    5.0795   49.7173 C.3     1  ZINC000426037318    0.0200
     23 C23         0.0566    4.3403   51.4340 C.ar    1  ZINC000426037318   -0.1800
     24 C24        -0.9277    3.9866   52.3366 C.ar    1  ZINC000426037318   -0.0300
     25 Cl25       -0.8734    4.5927   53.9625 Cl      1  ZINC000426037318   -0.0600
     26 S26        -5.1068    3.2452   55.5080 S.3     1  ZINC000426037318    0.2200
     27 C27        -6.6907    2.5219   55.7532 C.ar    1  ZINC000426037318    0.1300
     28 N28        -7.4074    2.3211   56.8643 N.ar    1  ZINC000426037318   -0.5000
     29 H29        -9.7628    3.7447   60.5556 H       1  ZINC000426037318    0.0900
     30 H30       -10.3770    2.0754   60.4868 H       1  ZINC000426037318    0.0500
     31 H31        -8.6231    2.3781   60.5083 H       1  ZINC000426037318    0.0500
     32 H32        -8.7757    0.8994   58.7629 H       1  ZINC000426037318    0.0900
     33 H33       -10.3096    1.0681   57.8757 H       1  ZINC000426037318    0.0800
     34 H34        -9.6024   -0.8242   53.8960 H       1  ZINC000426037318    0.0700
     35 H35        -9.5539   -0.4952   52.1474 H       1  ZINC000426037318    0.1100
     36 H36        -8.0372   -0.6601   53.0644 H       1  ZINC000426037318    0.0700
     37 H37        -7.2384    2.9011   51.5675 H       1  ZINC000426037318    0.0900
     38 H38        -5.8037    1.8530   51.4607 H       1  ZINC000426037318    0.1000
     39 H39        -7.3582    1.1807   52.0080 H       1  ZINC000426037318    0.0800
     40 H40        -2.7722    2.0935   53.5281 H       1  ZINC000426037318    0.4100
     41 H41        -2.7991    1.9969   50.3386 H       1  ZINC000426037318    0.1600
     42 H42        -1.6327    3.1760   47.7056 H       1  ZINC000426037318    0.0700
     43 H43        -0.0482    2.4001   47.9416 H       1  ZINC000426037318    0.0700
     44 H44        -1.5412    1.5088   48.3221 H       1  ZINC000426037318    0.0700
     45 H45         1.5659    6.0163   50.0557 H       1  ZINC000426037318    0.0600
     46 H46         2.5335    4.6052   50.5466 H       1  ZINC000426037318    0.0600
     47 H47         2.7126    5.2812   48.9098 H       1  ZINC000426037318    0.1000
     48 H48         0.8581    4.9969   51.7388 H       1  ZINC000426037318    0.1500
@<TRIPOS>BOND
     1     1     2    1
     2     1    29    1
     3     1    30    1
     4     1    31    1
     5     2     3    1
     6     3     4    1
     7     3    32    1
     8     3    33    1
     9     4    28   ar
    10     4     5   ar
    11     5     6   ar
    12     6     7    1
    13     6     9   ar
    14     7     8    1
    15     8    34    1
    16     8    35    1
    17     8    36    1
    18     9    27   ar
    19     9    10    1
    20    10    11    1
    21    10    12    2
    22    11    37    1
    23    11    38    1
    24    11    39    1
    25    12    13    1
    26    12    26    1
    27    13    14    2
    28    13    15   am
    29    15    16    1
    30    15    40    1
    31    16    24   ar
    32    16    17   ar
    33    17    18   ar
    34    17    41    1
    35    18    19    1
    36    18    20   ar
    37    19    42    1
    38    19    43    1
    39    19    44    1
    40    20    21    1
    41    20    23   ar
    42    21    22    1
    43    22    45    1
    44    22    46    1
    45    22    47    1
    46    23    24   ar
    47    23    48    1
    48    24    25    1
    49    26    27    1
    50    27    28   ar
@<TRIPOS>SUBSTRUCTURE
     1 ZINC000426037318        1 TEMP              0 ****  ****    0 ROOT


##########                                Name:    ZINC000854500114
##########                DOCK_Rotatable_Bonds:                   7
##########                         Heavy_Atoms:                  24
##########                    Molecular_Weight:             399.288
##########                DOCK_Rotatable_Bonds:                   7
##########                       Formal_Charge:          -0.0399992
##########                     HBond_Acceptors:                   7
##########                        HBond_Donors:                   2
##########                         Heavy_Atoms:                  24
##########                          Grid_Score:          -26.334932
##########                     Grid_vdw_energy:          -26.530376
##########                      Grid_es_energy:            0.195444
##########           Internal_energy_repulsive:           76.864319

@<TRIPOS>MOLECULE
ZINC000854500114
 47 49 1 0 0
SMALL
USER_CHARGES


@<TRIPOS>ATOM
      1 O1        -10.6202   -1.1186   55.3983 O.2     1  ZINC000854500114   -0.5800
      2 C2        -11.3664   -1.5384   54.5360 C.2     1  ZINC000854500114    0.6600
      3 N3        -12.5536   -2.0780   54.8765 N.am    1  ZINC000854500114   -0.7100
      4 C4        -12.9418   -2.1638   56.2867 C.3     1  ZINC000854500114    0.1600
      5 C5        -13.6708   -0.8730   56.7135 C.3     1  ZINC000854500114   -0.1400
      6 C6        -15.1732   -1.2166   56.5591 C.3     1  ZINC000854500114   -0.1300
      7 C7        -15.2374   -2.6898   57.0331 C.3     1  ZINC000854500114   -0.1300
      8 C8        -13.9379   -3.3189   56.4898 C.3     1  ZINC000854500114   -0.1300
      9 O9        -11.0097   -1.4596   53.2402 O.3     1  ZINC000854500114   -0.3600
     10 C10        -9.8036   -0.7118   52.9329 C.3     1  ZINC000854500114    0.1000
     11 C11       -10.0901    0.7869   53.0459 C.3     1  ZINC000854500114    0.1500
     12 H12       -10.2955    1.0423   54.0853 H       1  ZINC000854500114    0.0900
     13 C13       -11.3020    1.1448   52.1798 C.3     1  ZINC000854500114   -0.1300
     14 C14       -11.4983    2.6626   52.1865 C.3     1  ZINC000854500114   -0.1200
     15 C15       -10.2623    3.3411   51.5916 C.3     1  ZINC000854500114   -0.1400
     16 C16        -9.0386    3.0081   52.4509 C.3     1  ZINC000854500114    0.0900
     17 N17        -8.9258    1.5479   52.5725 N.am    1  ZINC000854500114   -0.6100
     18 C18        -7.7780    0.9187   52.2511 C.2     1  ZINC000854500114    0.5900
     19 O19        -7.6973   -0.2904   52.3561 O.2     1  ZINC000854500114   -0.4900
     20 C20        -6.6225    1.6945   51.7731 C.2     1  ZINC000854500114   -0.0300
     21 C21        -5.7961    2.5059   52.5310 C.2     1  ZINC000854500114   -0.1200
     22 C22        -4.8558    3.0180   51.6329 C.2     1  ZINC000854500114    0.0200
     23 Br23       -3.4421    4.2011   52.0547 Br      1  ZINC000854500114    0.0400
     24 N24        -5.1273    2.5329   50.4477 N.2     1  ZINC000854500114   -0.2400
     25 N25        -6.1473    1.7536   50.4939 N.pl3   1  ZINC000854500114   -0.3700
     26 H26       -13.1511   -2.4095   54.1881 H       1  ZINC000854500114    0.4000
     27 H27       -12.0594   -2.3181   56.9077 H       1  ZINC000854500114    0.0900
     28 H28       -13.4397   -0.6296   57.7506 H       1  ZINC000854500114    0.0800
     29 H29       -13.3990   -0.0464   56.0570 H       1  ZINC000854500114    0.0700
     30 H30       -15.7831   -0.5781   57.1985 H       1  ZINC000854500114    0.0700
     31 H31       -15.4838   -1.1318   55.5179 H       1  ZINC000854500114    0.0700
     32 H32       -15.2593   -2.7397   58.1217 H       1  ZINC000854500114    0.0700
     33 H33       -16.1090   -3.1890   56.6096 H       1  ZINC000854500114    0.0700
     34 H34       -14.1325   -3.8157   55.5393 H       1  ZINC000854500114    0.0700
     35 H35       -13.5393   -4.0333   57.2102 H       1  ZINC000854500114    0.0800
     36 H36        -9.0173   -0.9855   53.6362 H       1  ZINC000854500114    0.1000
     37 H37        -9.4806   -0.9445   51.9182 H       1  ZINC000854500114    0.0700
     38 H38       -11.1325    0.8044   51.1583 H       1  ZINC000854500114    0.0800
     39 H39       -12.1921    0.6610   52.5820 H       1  ZINC000854500114    0.0900
     40 H40       -12.3747    2.9180   51.5910 H       1  ZINC000854500114    0.0800
     41 H41       -11.6431    3.0055   53.2109 H       1  ZINC000854500114    0.0700
     42 H42       -10.1025    2.9800   50.5756 H       1  ZINC000854500114    0.0700
     43 H43       -10.4124    4.4207   51.5751 H       1  ZINC000854500114    0.0800
     44 H44        -8.1407    3.4060   51.9779 H       1  ZINC000854500114    0.0800
     45 H45        -9.1574    3.4470   53.4415 H       1  ZINC000854500114    0.0800
     46 H46        -5.8636    2.7017   53.5909 H       1  ZINC000854500114    0.1700
     47 H47        -6.5263    1.2836   49.7347 H       1  ZINC000854500114    0.4500
@<TRIPOS>BOND
     1     1     2    2
     2     2     3   am
     3     2     9    1
     4     3     4    1
     5     3    26    1
     6     4     8    1
     7     4     5    1
     8     4    27    1
     9     5     6    1
    10     5    28    1
    11     5    29    1
    12     6     7    1
    13     6    30    1
    14     6    31    1
    15     7     8    1
    16     7    32    1
    17     7    33    1
    18     8    34    1
    19     8    35    1
    20     9    10    1
    21    10    11    1
    22    10    36    1
    23    10    37    1
    24    11    12    1
    25    11    17    1
    26    11    13    1
    27    13    14    1
    28    13    38    1
    29    13    39    1
    30    14    15    1
    31    14    40    1
    32    14    41    1
    33    15    16    1
    34    15    42    1
    35    15    43    1
    36    16    17    1
    37    16    44    1
    38    16    45    1
    39    17    18   am
    40    18    19    2
    41    18    20    1
    42    20    25    1
    43    20    21    2
    44    21    22    1
    45    21    46    1
    46    22    23    1
    47    22    24    2
    48    24    25    1
    49    25    47    1
@<TRIPOS>SUBSTRUCTURE
     1 ZINC000854500114        1 TEMP              0 ****  ****    0 ROOT


##########                                Name:    ZINC000561219098
##########                DOCK_Rotatable_Bonds:                   4
##########                         Heavy_Atoms:                  28
##########                    Molecular_Weight:             423.273
##########                DOCK_Rotatable_Bonds:                   4
##########                       Formal_Charge:          0.00999953
##########                     HBond_Acceptors:                   9
##########                        HBond_Donors:                   1
##########                         Heavy_Atoms:                  28
##########                          Grid_Score:          -26.331280
##########                     Grid_vdw_energy:          -24.279976
##########                      Grid_es_energy:           -2.051303
##########           Internal_energy_repulsive:           10.419546

@<TRIPOS>MOLECULE
ZINC000561219098
 45 48 1 0 0
SMALL
USER_CHARGES


@<TRIPOS>ATOM
      1 C1        -13.7755    2.4556   44.1583 C.3     1  ZINC000561219098    0.0700
      2 N2        -13.8526    1.9462   45.5297 N.pl3   1  ZINC000561219098   -0.4500
      3 C3        -14.4966    0.8078   45.9171 C.2     1  ZINC000561219098   -0.0100
      4 C4        -14.3508    0.6662   47.2480 C.2     1  ZINC000561219098   -0.1700
      5 C5        -13.5822    1.7649   47.7084 C.2     1  ZINC000561219098   -0.1100
      6 C6        -13.1700    2.0274   49.1109 C.2     1  ZINC000561219098    0.1600
      7 N7        -12.3286    2.9612   49.5038 N.2     1  ZINC000561219098   -0.2700
      8 N8        -12.1987    2.8916   50.8963 N.pl3   1  ZINC000561219098   -0.4700
      9 C9        -12.9963    1.8748   51.3429 C.2     1  ZINC000561219098    0.0300
     10 C10       -13.1663    1.4490   52.7416 C.2     1  ZINC000561219098    0.5900
     11 O11       -14.2252    1.6363   53.3100 O.2     1  ZINC000561219098   -0.5000
     12 N12       -12.1486    0.8516   53.3925 N.am    1  ZINC000561219098   -0.6100
     13 C13       -10.8583    0.6143   52.7259 C.3     1  ZINC000561219098    0.0500
     14 C14       -10.4715   -0.8549   52.9300 C.3     1  ZINC000561219098    0.0500
     15 O15       -10.5334   -1.1688   54.3234 O.3     1  ZINC000561219098   -0.3700
     16 C16       -11.8379   -1.0422   54.8944 C.3     1  ZINC000561219098    0.1200
     17 H17       -12.5358   -1.6812   54.3535 H       1  ZINC000561219098    0.0900
     18 C18       -11.7955   -1.4559   56.3429 C.ar    1  ZINC000561219098   -0.0500
     19 C19       -10.7525   -1.0417   57.1492 C.ar    1  ZINC000561219098   -0.1000
     20 C20       -10.7135   -1.4213   58.4800 C.ar    1  ZINC000561219098    0.1200
     21 F21        -9.6942   -1.0162   59.2688 F       1  ZINC000561219098   -0.1200
     22 C22       -11.7206   -2.2164   59.0026 C.ar    1  ZINC000561219098   -0.0600
     23 Cl23      -11.6732   -2.6927   60.6714 Cl      1  ZINC000561219098   -0.0300
     24 C24       -12.7637   -2.6302   58.1944 C.ar    1  ZINC000561219098   -0.0700
     25 C25       -12.8041   -2.2458   56.8662 C.ar    1  ZINC000561219098   -0.0300
     26 Cl26      -14.1140   -2.7648   55.8521 Cl      1  ZINC000561219098   -0.0400
     27 C27       -12.2927    0.4226   54.7927 C.3     1  ZINC000561219098    0.0900
     28 C28       -13.6159    1.3266   50.2408 C.2     1  ZINC000561219098   -0.1700
     29 C29       -13.2879    2.5296   46.6235 C.2     1  ZINC000561219098    0.0300
     30 H30       -12.8977    2.0387   43.6646 H       1  ZINC000561219098    0.0800
     31 H31       -14.6725    2.1645   43.6116 H       1  ZINC000561219098    0.0900
     32 H32       -13.6990    3.5428   44.1782 H       1  ZINC000561219098    0.0900
     33 H33       -15.0330    0.1337   45.2658 H       1  ZINC000561219098    0.1700
     34 H34       -14.7462   -0.1363   47.8531 H       1  ZINC000561219098    0.1400
     35 H35       -11.6409    3.4632   51.4467 H       1  ZINC000561219098    0.4400
     36 H36       -10.9514    0.8249   51.6605 H       1  ZINC000561219098    0.1000
     37 H37       -10.0955    1.2589   53.1627 H       1  ZINC000561219098    0.0900
     38 H38       -11.1645   -1.4933   52.3818 H       1  ZINC000561219098    0.0700
     39 H39        -9.4578   -1.0186   52.5646 H       1  ZINC000561219098    0.1200
     40 H40        -9.9676   -0.4222   56.7411 H       1  ZINC000561219098    0.1600
     41 H41       -13.5489   -3.2503   58.6011 H       1  ZINC000561219098    0.1600
     42 H42       -11.6736    1.0450   55.4387 H       1  ZINC000561219098    0.0900
     43 H43       -13.3370    0.5045   55.0945 H       1  ZINC000561219098    0.1100
     44 H44       -14.3132    0.5019   50.2457 H       1  ZINC000561219098    0.1600
     45 H45       -12.7130    3.4439   46.6291 H       1  ZINC000561219098    0.1700
@<TRIPOS>BOND
     1     1     2    1
     2     1    30    1
     3     1    31    1
     4     1    32    1
     5     2    29    1
     6     2     3    1
     7     3     4    2
     8     3    33    1
     9     4     5    1
    10     4    34    1
    11     5     6    1
    12     5    29    2
    13     6    28    1
    14     6     7    2
    15     7     8    1
    16     8     9    1
    17     8    35    1
    18     9    10    1
    19     9    28    2
    20    10    11    2
    21    10    12   am
    22    12    27    1
    23    12    13    1
    24    13    14    1
    25    13    36    1
    26    13    37    1
    27    14    15    1
    28    14    38    1
    29    14    39    1
    30    15    16    1
    31    16    17    1
    32    16    18    1
    33    16    27    1
    34    18    25   ar
    35    18    19   ar
    36    19    20   ar
    37    19    40    1
    38    20    21    1
    39    20    22   ar
    40    22    23    1
    41    22    24   ar
    42    24    25   ar
    43    24    41    1
    44    25    26    1
    45    27    42    1
    46    27    43    1
    47    28    44    1
    48    29    45    1
@<TRIPOS>SUBSTRUCTURE
     1 ZINC000561219098        1 TEMP              0 ****  ****    0 ROOT


##########                                Name:    ZINC000948289723
##########                DOCK_Rotatable_Bonds:                   6
##########                         Heavy_Atoms:                  24
##########                    Molecular_Weight:             331.415
##########                DOCK_Rotatable_Bonds:                   6
##########                       Formal_Charge:           0.0599999
##########                     HBond_Acceptors:                   6
##########                        HBond_Donors:                   1
##########                         Heavy_Atoms:                  24
##########                          Grid_Score:          -26.302792
##########                     Grid_vdw_energy:          -25.955824
##########                      Grid_es_energy:           -0.346967
##########           Internal_energy_repulsive:            6.606172

@<TRIPOS>MOLECULE
ZINC000948289723
 49 52 1 0 0
SMALL
USER_CHARGES


@<TRIPOS>ATOM
      1 C1        -11.3479   -0.4026   54.8956 C.3     1  ZINC000948289723   -0.1400
      2 C2        -11.1212    0.5216   53.6975 C.3     1  ZINC000948289723   -0.1100
      3 C3         -9.7918    1.2923   53.7568 C.3     1  ZINC000948289723   -0.1100
      4 C4         -9.6658    1.0349   52.2459 C.3     1  ZINC000948289723   -0.1400
      5 C5         -8.2645    0.6976   51.8058 C.2     1  ZINC000948289723    0.5400
      6 O6         -7.9394   -0.4607   51.6523 O.2     1  ZINC000948289723   -0.5300
      7 N7         -7.3726    1.6831   51.5830 N.am    1  ZINC000948289723   -0.6200
      8 C8         -7.6318    3.1227   51.7301 C.3     1  ZINC000948289723    0.1100
      9 C9         -6.3182    3.8612   51.3975 C.3     1  ZINC000948289723   -0.1100
     10 H10        -6.3141    4.1919   50.3588 H       1  ZINC000948289723    0.1000
     11 C11        -6.1095    5.0468   52.3418 C.3     1  ZINC000948289723   -0.1400
     12 C12        -5.2384    2.7718   51.6310 C.3     1  ZINC000948289723    0.1400
     13 H13        -4.9782    2.6996   52.6869 H       1  ZINC000948289723    0.1200
     14 N14        -4.0483    3.0288   50.8161 N.am    1  ZINC000948289723   -0.7100
     15 C15        -2.8206    2.8970   51.3561 C.2     1  ZINC000948289723    0.6100
     16 O16        -2.7005    2.5633   52.5190 O.2     1  ZINC000948289723   -0.5000
     17 C17        -1.6223    3.1576   50.5362 C.2     1  ZINC000948289723   -0.0900
     18 C18        -0.3233    3.1885   50.9649 C.2     1  ZINC000948289723   -0.1400
     19 C19         0.4124    3.4760   49.7937 C.2     1  ZINC000948289723    0.0500
     20 C20         1.9078    3.6266   49.6836 C.3     1  ZINC000948289723   -0.0900
     21 C21         2.7377    2.3492   49.5401 C.3     1  ZINC000948289723   -0.1600
     22 C22         2.5556    3.2818   48.3409 C.3     1  ZINC000948289723   -0.1600
     23 N23        -0.4534    3.5851   48.8284 N.2     1  ZINC000948289723   -0.3300
     24 O24        -1.5854    3.4072   49.2136 O.3     1  ZINC000948289723    0.1200
     25 C25        -5.9735    1.4957   51.1575 C.3     1  ZINC000948289723    0.0900
     26 C26       -10.5577   -0.1991   52.4614 C.3     1  ZINC000948289723   -0.1200
     27 H27       -10.4014   -0.8576   55.1877 H       1  ZINC000948289723    0.0600
     28 H28       -11.7462    0.1749   55.7297 H       1  ZINC000948289723    0.0600
     29 H29       -12.0576   -1.1837   54.6228 H       1  ZINC000948289723    0.0600
     30 H30       -11.9836    1.1519   53.4800 H       1  ZINC000948289723    0.0900
     31 H31        -9.9087    2.3455   54.0121 H       1  ZINC000948289723    0.0700
     32 H32        -9.0247    0.7945   54.3500 H       1  ZINC000948289723    0.1000
     33 H33       -10.1280    1.8075   51.6314 H       1  ZINC000948289723    0.1100
     34 H34        -8.4157    3.4309   51.0384 H       1  ZINC000948289723    0.0800
     35 H35        -7.9314    3.3426   52.7549 H       1  ZINC000948289723    0.0800
     36 H36        -6.0869    4.6912   53.3719 H       1  ZINC000948289723    0.0600
     37 H37        -5.1651    5.5373   52.1059 H       1  ZINC000948289723    0.0600
     38 H38        -6.9278    5.7565   52.2204 H       1  ZINC000948289723    0.0700
     39 H39        -4.1441    3.2939   49.8880 H       1  ZINC000948289723    0.4100
     40 H40         0.0519    3.0306   51.9651 H       1  ZINC000948289723    0.1800
     41 H41         2.3411    4.4471   50.2555 H       1  ZINC000948289723    0.1300
     42 H42         3.7172    2.3290   50.0178 H       1  ZINC000948289723    0.1100
     43 H43         2.2020    1.4000   49.5254 H       1  ZINC000948289723    0.1000
     44 H44         1.9000    2.9463   47.5374 H       1  ZINC000948289723    0.1000
     45 H45         3.4152    3.8753   48.0298 H       1  ZINC000948289723    0.1100
     46 H46        -5.5443    0.6128   51.6312 H       1  ZINC000948289723    0.0900
     47 H47        -5.9212    1.4083   50.0723 H       1  ZINC000948289723    0.0800
     48 H48        -9.9999   -1.1046   52.7004 H       1  ZINC000948289723    0.0900
     49 H49       -11.2928   -0.3499   51.6710 H       1  ZINC000948289723    0.0800
@<TRIPOS>BOND
     1     1     2    1
     2     1    27    1
     3     1    28    1
     4     1    29    1
     5     2    26    1
     6     2     3    1
     7     2    30    1
     8     3     4    1
     9     3    31    1
    10     3    32    1
    11     4     5    1
    12     4    26    1
    13     4    33    1
    14     5     6    2
    15     5     7   am
    16     7    25    1
    17     7     8    1
    18     8     9    1
    19     8    34    1
    20     8    35    1
    21     9    10    1
    22     9    11    1
    23     9    12    1
    24    11    36    1
    25    11    37    1
    26    11    38    1
    27    12    13    1
    28    12    14    1
    29    12    25    1
    30    14    15   am
    31    14    39    1
    32    15    16    2
    33    15    17    1
    34    17    24    1
    35    17    18    2
    36    18    19    1
    37    18    40    1
    38    19    20    1
    39    19    23    2
    40    20    22    1
    41    20    21    1
    42    20    41    1
    43    21    22    1
    44    21    42    1
    45    21    43    1
    46    22    44    1
    47    22    45    1
    48    23    24    1
    49    25    46    1
    50    25    47    1
    51    26    48    1
    52    26    49    1
@<TRIPOS>SUBSTRUCTURE
     1 ZINC000948289723        1 TEMP              0 ****  ****    0 ROOT


##########                                Name:    ZINC000089894387
##########                DOCK_Rotatable_Bonds:                   8
##########                         Heavy_Atoms:                  22
##########                    Molecular_Weight:             326.823
##########                DOCK_Rotatable_Bonds:                   8
##########                       Formal_Charge:          -0.0300003
##########                     HBond_Acceptors:                   6
##########                        HBond_Donors:                   2
##########                         Heavy_Atoms:                  22
##########                          Grid_Score:          -26.269918
##########                     Grid_vdw_energy:          -27.219593
##########                      Grid_es_energy:            0.949675
##########           Internal_energy_repulsive:           11.949835

@<TRIPOS>MOLECULE
ZINC000089894387
 45 46 1 0 0
SMALL
USER_CHARGES


@<TRIPOS>ATOM
      1 C1         -9.2420    3.6106   57.1325 C.3     1  ZINC000089894387   -0.1700
      2 C2         -7.7988    3.2221   57.4599 C.3     1  ZINC000089894387    0.1700
      3 H3         -7.4746    3.7512   58.3561 H       1  ZINC000089894387    0.0900
      4 N4         -7.7225    1.7775   57.6911 N.am    1  ZINC000089894387   -0.7400
      5 C5         -7.9813    1.2764   58.9152 C.2     1  ZINC000089894387    0.7100
      6 O6         -8.2766    2.0233   59.8280 O.2     1  ZINC000089894387   -0.5900
      7 N7         -7.9126   -0.0528   59.1276 N.am    1  ZINC000089894387   -0.7500
      8 C8         -8.1956   -0.5977   60.4577 C.3     1  ZINC000089894387    0.1400
      9 C9         -9.6865   -0.9229   60.5689 C.3     1  ZINC000089894387    0.0500
     10 O10        -9.9812   -2.0810   59.7853 O.3     1  ZINC000089894387   -0.3100
     11 C11       -11.2907   -2.3305   59.5213 C.ar    1  ZINC000089894387    0.1400
     12 C12       -11.6823   -2.7097   58.2457 C.ar    1  ZINC000089894387   -0.2100
     13 C13       -13.0142   -2.9628   57.9792 C.ar    1  ZINC000089894387   -0.0700
     14 C14       -13.9570   -2.8388   58.9824 C.ar    1  ZINC000089894387   -0.1500
     15 C15       -13.5695   -2.4602   60.2561 C.ar    1  ZINC000089894387    0.0000
     16 Cl16      -14.7560   -2.3052   61.5138 Cl      1  ZINC000089894387   -0.0600
     17 C17       -12.2372   -2.2119   60.5288 C.ar    1  ZINC000089894387   -0.1500
     18 C18        -6.8905    3.5997   56.2881 C.3     1  ZINC000089894387   -0.1000
     19 C19        -5.4251    3.4995   56.7225 C.3     1  ZINC000089894387   -0.1600
     20 C20        -4.5234    3.8022   55.5229 C.3     1  ZINC000089894387    0.0600
     21 O21        -4.8214    2.8914   54.4628 O.3     1  ZINC000089894387   -0.3800
     22 C22        -6.1651    2.9733   53.9834 C.3     1  ZINC000089894387    0.0600
     23 C23        -7.1327    2.6372   55.1212 C.3     1  ZINC000089894387   -0.1500
     24 H24        -9.5663    3.0816   56.2363 H       1  ZINC000089894387    0.0600
     25 H25        -9.8891    3.3416   57.9673 H       1  ZINC000089894387    0.0600
     26 H26        -9.2988    4.6854   56.9604 H       1  ZINC000089894387    0.0700
     27 H27        -7.4856    1.1817   56.9633 H       1  ZINC000089894387    0.3900
     28 H28        -7.6757   -0.6486   58.3997 H       1  ZINC000089894387    0.4000
     29 H29        -7.6132   -1.5064   60.6095 H       1  ZINC000089894387    0.0800
     30 H30        -7.9266    0.1374   61.2162 H       1  ZINC000089894387    0.0900
     31 H31        -9.9395   -1.1158   61.6115 H       1  ZINC000089894387    0.0900
     32 H32       -10.2709   -0.0786   60.2033 H       1  ZINC000089894387    0.0700
     33 H33       -10.9464   -2.8065   57.4612 H       1  ZINC000089894387    0.1300
     34 H34       -13.3190   -3.2576   56.9860 H       1  ZINC000089894387    0.1400
     35 H35       -14.9975   -3.0371   58.7720 H       1  ZINC000089894387    0.1400
     36 H36       -11.9347   -1.9169   61.5227 H       1  ZINC000089894387    0.1400
     37 H37        -7.1094    4.6194   55.9711 H       1  ZINC000089894387    0.0800
     38 H38        -5.2303    4.2209   57.5160 H       1  ZINC000089894387    0.0700
     39 H39        -5.2212    2.4924   57.0864 H       1  ZINC000089894387    0.0800
     40 H40        -4.6991    4.8234   55.1848 H       1  ZINC000089894387    0.0500
     41 H41        -3.4794    3.6905   55.8155 H       1  ZINC000089894387    0.0900
     42 H42        -6.3622    3.9838   53.6252 H       1  ZINC000089894387    0.0500
     43 H43        -6.3036    2.2646   53.1671 H       1  ZINC000089894387    0.1000
     44 H44        -6.9633    1.6128   55.4529 H       1  ZINC000089894387    0.0800
     45 H45        -8.1591    2.7422   54.7695 H       1  ZINC000089894387    0.0800
@<TRIPOS>BOND
     1     1     2    1
     2     1    24    1
     3     1    25    1
     4     1    26    1
     5     2     3    1
     6     2     4    1
     7     2    18    1
     8     4     5   am
     9     4    27    1
    10     5     6    2
    11     5     7   am
    12     7     8    1
    13     7    28    1
    14     8     9    1
    15     8    29    1
    16     8    30    1
    17     9    10    1
    18     9    31    1
    19     9    32    1
    20    10    11    1
    21    11    17   ar
    22    11    12   ar
    23    12    13   ar
    24    12    33    1
    25    13    14   ar
    26    13    34    1
    27    14    15   ar
    28    14    35    1
    29    15    16    1
    30    15    17   ar
    31    17    36    1
    32    18    23    1
    33    18    19    1
    34    18    37    1
    35    19    20    1
    36    19    38    1
    37    19    39    1
    38    20    21    1
    39    20    40    1
    40    20    41    1
    41    21    22    1
    42    22    23    1
    43    22    42    1
    44    22    43    1
    45    23    44    1
    46    23    45    1
@<TRIPOS>SUBSTRUCTURE
     1 ZINC000089894387        1 TEMP              0 ****  ****    0 ROOT


##########                                Name:    ZINC000676204775
##########                DOCK_Rotatable_Bonds:                   4
##########                         Heavy_Atoms:                  25
##########                    Molecular_Weight:             359.452
##########                DOCK_Rotatable_Bonds:                   4
##########                       Formal_Charge:          0.00999978
##########                     HBond_Acceptors:                   8
##########                        HBond_Donors:                   2
##########                         Heavy_Atoms:                  25
##########                          Grid_Score:          -26.251892
##########                     Grid_vdw_energy:          -25.501215
##########                      Grid_es_energy:           -0.750678
##########           Internal_energy_repulsive:            6.558904

@<TRIPOS>MOLECULE
ZINC000676204775
 46 49 1 0 0
SMALL
USER_CHARGES


@<TRIPOS>ATOM
      1 C1          2.3025   -0.8093   49.3115 C.3     1  ZINC000676204775   -0.1600
      2 C2          2.3978    0.5006   48.5264 C.3     1  ZINC000676204775    0.1600
      3 C3          2.9042    0.2115   47.1119 C.3     1  ZINC000676204775   -0.1600
      4 N4          1.0739    1.1235   48.4534 N.pl3   1  ZINC000676204775   -0.3900
      5 N5          0.1151    0.8784   47.4649 N.2     1  ZINC000676204775   -0.2500
      6 C6         -0.9517    1.5908   47.6898 C.2     1  ZINC000676204775    0.0900
      7 C7         -0.7190    2.3721   48.9002 C.ar    1  ZINC000676204775   -0.2100
      8 C8         -1.4805    3.2982   49.6214 C.ar    1  ZINC000676204775    0.0800
      9 C9         -0.9601    3.8695   50.7466 C.ar    1  ZINC000676204775   -0.7200
     10 S10        -1.9181    5.0355   51.6562 S.o2    1  ZINC000676204775    2.6900
     11 O11        -1.5402    6.3211   51.1834 O.2     1  ZINC000676204775   -0.9300
     12 O12        -3.2572    4.5609   51.6314 O.2     1  ZINC000676204775   -0.9600
     13 N13        -1.4219    4.9529   53.2339 N.am    1  ZINC000676204775   -1.1100
     14 C14        -1.5373    3.6934   53.9732 C.3     1  ZINC000676204775    0.2400
     15 H15        -1.5681    2.8580   53.2736 H       1  ZINC000676204775    0.1000
     16 C16        -2.8155    3.7061   54.8207 C.3     1  ZINC000676204775   -0.1200
     17 C17        -2.8179    2.5063   55.7705 C.3     1  ZINC000676204775   -0.1200
     18 C18        -1.7797    2.7215   56.8789 C.3     1  ZINC000676204775   -0.0400
     19 C19        -0.4698    3.0968   56.2308 C.2     1  ZINC000676204775   -0.2300
     20 C20         0.7631    3.0805   56.7701 C.2     1  ZINC000676204775    0.0600
     21 N21         1.6310    3.4937   55.8195 N.pl3   1  ZINC000676204775   -0.4800
     22 N22         0.8985    3.7736   54.6559 N.2     1  ZINC000676204775   -0.2400
     23 C23        -0.3567    3.5374   54.9009 C.2     1  ZINC000676204775    0.0500
     24 C24         0.3175    3.5401   51.1816 C.ar    1  ZINC000676204775    0.0100
     25 C25         1.0803    2.6387   50.4943 C.ar    1  ZINC000676204775   -0.1500
     26 C26         0.5740    2.0354   49.3460 C.ar    1  ZINC000676204775    0.1700
     27 H27         1.9418   -0.6034   50.3192 H       1  ZINC000676204775    0.0600
     28 H28         1.6104   -1.4847   48.8086 H       1  ZINC000676204775    0.0700
     29 H29         3.2876   -1.2728   49.3658 H       1  ZINC000676204775    0.0800
     30 H30         3.0900    1.1760   49.0293 H       1  ZINC000676204775    0.1000
     31 H31         2.2120   -0.4638   46.6090 H       1  ZINC000676204775    0.0700
     32 H32         2.9721    1.1447   46.5526 H       1  ZINC000676204775    0.0600
     33 H33         3.8893   -0.2520   47.1662 H       1  ZINC000676204775    0.0800
     34 H34        -1.8484    1.6016   47.0879 H       1  ZINC000676204775    0.2000
     35 H35        -2.4743    3.5597   49.2895 H       1  ZINC000676204775    0.1500
     36 H36        -1.0547    5.7386   53.6687 H       1  ZINC000676204775    0.4200
     37 H37        -2.8566    4.6279   55.4009 H       1  ZINC000676204775    0.0800
     38 H38        -3.6852    3.6518   54.1659 H       1  ZINC000676204775    0.0800
     39 H39        -3.8068    2.3987   56.2162 H       1  ZINC000676204775    0.0700
     40 H40        -2.5717    1.6023   55.2135 H       1  ZINC000676204775    0.0700
     41 H41        -2.1070    3.5250   57.5386 H       1  ZINC000676204775    0.0700
     42 H42        -1.6566    1.8020   57.4510 H       1  ZINC000676204775    0.0700
     43 H43         1.0137    2.7897   57.7795 H       1  ZINC000676204775    0.1800
     44 H44         2.5914    3.5814   55.9236 H       1  ZINC000676204775    0.4400
     45 H45         0.7128    4.0027   52.0740 H       1  ZINC000676204775    0.1500
     46 H46         2.0720    2.3915   50.8433 H       1  ZINC000676204775    0.1300
@<TRIPOS>BOND
     1     1     2    1
     2     1    27    1
     3     1    28    1
     4     1    29    1
     5     2     3    1
     6     2     4    1
     7     2    30    1
     8     3    31    1
     9     3    32    1
    10     3    33    1
    11     4    26    1
    12     4     5    1
    13     5     6    2
    14     6     7    1
    15     6    34    1
    16     7    26   ar
    17     7     8   ar
    18     8     9   ar
    19     8    35    1
    20     9    10    1
    21     9    24   ar
    22    10    11    2
    23    10    12    2
    24    10    13   am
    25    13    14    1
    26    13    36    1
    27    14    15    1
    28    14    23    1
    29    14    16    1
    30    16    17    1
    31    16    37    1
    32    16    38    1
    33    17    18    1
    34    17    39    1
    35    17    40    1
    36    18    19    1
    37    18    41    1
    38    18    42    1
    39    19    23    1
    40    19    20    2
    41    20    21    1
    42    20    43    1
    43    21    22    1
    44    21    44    1
    45    22    23    2
    46    24    25   ar
    47    24    45    1
    48    25    26   ar
    49    25    46    1
@<TRIPOS>SUBSTRUCTURE
     1 ZINC000676204775        1 TEMP              0 ****  ****    0 ROOT


##########                                Name:    ZINC000444542200
##########                DOCK_Rotatable_Bonds:                   8
##########                         Heavy_Atoms:                  28
##########                    Molecular_Weight:             404.337
##########                DOCK_Rotatable_Bonds:                   8
##########                       Formal_Charge:           0.0200001
##########                     HBond_Acceptors:                  10
##########                        HBond_Donors:                   1
##########                         Heavy_Atoms:                  28
##########                          Grid_Score:          -26.243488
##########                     Grid_vdw_energy:          -25.709379
##########                      Grid_es_energy:           -0.534109
##########           Internal_energy_repulsive:           22.003633

@<TRIPOS>MOLECULE
ZINC000444542200
 45 46 1 0 0
SMALL
USER_CHARGES


@<TRIPOS>ATOM
      1 C1         -8.2306   -1.0423   60.4429 C.3     1  ZINC000444542200    0.0300
      2 O2         -9.5724   -1.0008   60.9329 O.3     1  ZINC000444542200   -0.3100
      3 C3        -10.5663   -1.1963   60.0268 C.ar    1  ZINC000444542200    0.1800
      4 C4        -10.3044   -1.0649   58.6716 C.ar    1  ZINC000444542200   -0.1700
      5 C5        -11.3196   -1.2650   57.7464 C.ar    1  ZINC000444542200    0.2300
      6 N6        -11.0558   -1.1331   56.3784 N.am    1  ZINC000444542200   -0.5800
      7 C7        -11.1605   -2.2983   55.4965 C.3     1  ZINC000444542200    0.0700
      8 C8        -10.7055    0.0659   55.8722 C.2     1  ZINC000444542200    0.7100
      9 O9        -10.6189    1.0330   56.6041 O.2     1  ZINC000444542200   -0.5500
     10 N10       -10.4515    0.1929   54.5548 N.am    1  ZINC000444542200   -0.7300
     11 C11       -10.0690    1.4958   54.0048 C.3     1  ZINC000444542200    0.1700
     12 H12        -9.8618    2.1880   54.8209 H       1  ZINC000444542200    0.1500
     13 C13        -8.8353    1.3392   53.1536 C.ar    1  ZINC000444542200   -0.1300
     14 C14        -8.5899    0.1431   52.5059 C.ar    1  ZINC000444542200   -0.0800
     15 C15        -7.4585   -0.0023   51.7247 C.ar    1  ZINC000444542200   -0.0900
     16 C16        -6.5705    1.0482   51.5896 C.ar    1  ZINC000444542200   -0.1100
     17 C17        -6.8134    2.2473   52.2369 C.ar    1  ZINC000444542200    0.0800
     18 F18        -5.9459    3.2746   52.1053 F       1  ZINC000444542200   -0.1200
     19 C19        -7.9510    2.3950   53.0158 C.ar    1  ZINC000444542200    0.1000
     20 F20        -8.1902    3.5644   53.6485 F       1  ZINC000444542200   -0.1100
     21 C21       -11.2128    2.0438   53.1491 C.3     1  ZINC000444542200    0.4400
     22 F22       -11.0915    1.5590   51.8425 F       1  ZINC000444542200   -0.1600
     23 F23       -12.4366    1.6319   53.6876 F       1  ZINC000444542200   -0.1700
     24 F24       -11.1564    3.4416   53.1350 F       1  ZINC000444542200   -0.1800
     25 C25       -12.5963   -1.5964   58.1786 C.ar    1  ZINC000444542200   -0.1900
     26 C26       -12.8568   -1.7274   59.5340 C.ar    1  ZINC000444542200    0.1800
     27 O27       -14.1068   -2.0519   59.9573 O.3     1  ZINC000444542200   -0.3100
     28 C28       -14.3022   -2.1769   61.3673 C.3     1  ZINC000444542200    0.0300
     29 C29       -11.8409   -1.5326   60.4577 C.ar    1  ZINC000444542200   -0.2900
     30 H30        -8.0355   -2.0191   60.0003 H       1  ZINC000444542200    0.0600
     31 H31        -8.0953   -0.2677   59.6881 H       1  ZINC000444542200    0.0600
     32 H32        -7.5375   -0.8717   61.2668 H       1  ZINC000444542200    0.1000
     33 H33        -9.3109   -0.8068   58.3362 H       1  ZINC000444542200    0.1300
     34 H34       -12.1764   -2.3697   55.1080 H       1  ZINC000444542200    0.0700
     35 H35       -10.4611   -2.1904   54.6675 H       1  ZINC000444542200    0.0700
     36 H36       -10.9218   -3.2015   56.0581 H       1  ZINC000444542200    0.0900
     37 H37       -10.5218   -0.5783   53.9706 H       1  ZINC000444542200    0.4100
     38 H38        -9.2824   -0.6790   52.6105 H       1  ZINC000444542200    0.1400
     39 H39        -7.2682   -0.9377   51.2197 H       1  ZINC000444542200    0.1500
     40 H40        -5.6869    0.9334   50.9794 H       1  ZINC000444542200    0.1500
     41 H41       -13.3868   -1.7518   57.4592 H       1  ZINC000444542200    0.1400
     42 H42       -14.0653   -1.2299   61.8523 H       1  ZINC000444542200    0.0600
     43 H43       -15.3412   -2.4382   61.5684 H       1  ZINC000444542200    0.1000
     44 H44       -13.6491   -2.9579   61.7568 H       1  ZINC000444542200    0.0600
     45 H45       -12.0443   -1.6347   61.5135 H       1  ZINC000444542200    0.1400
@<TRIPOS>BOND
     1     1     2    1
     2     1    30    1
     3     1    31    1
     4     1    32    1
     5     2     3    1
     6     3    29   ar
     7     3     4   ar
     8     4     5   ar
     9     4    33    1
    10     5     6    1
    11     5    25   ar
    12     6     7    1
    13     6     8   am
    14     7    34    1
    15     7    35    1
    16     7    36    1
    17     8     9    2
    18     8    10   am
    19    10    11    1
    20    10    37    1
    21    11    12    1
    22    11    13    1
    23    11    21    1
    24    13    19   ar
    25    13    14   ar
    26    14    15   ar
    27    14    38    1
    28    15    16   ar
    29    15    39    1
    30    16    17   ar
    31    16    40    1
    32    17    18    1
    33    17    19   ar
    34    19    20    1
    35    21    22    1
    36    21    23    1
    37    21    24    1
    38    25    26   ar
    39    25    41    1
    40    26    27    1
    41    26    29   ar
    42    27    28    1
    43    28    42    1
    44    28    43    1
    45    28    44    1
    46    29    45    1
@<TRIPOS>SUBSTRUCTURE
     1 ZINC000444542200        1 TEMP              0 ****  ****    0 ROOT


##########                                Name:    ZINC000190927708
##########                DOCK_Rotatable_Bonds:                  10
##########                         Heavy_Atoms:                  26
##########                    Molecular_Weight:             358.437
##########                DOCK_Rotatable_Bonds:                  10
##########                       Formal_Charge:           0.0499998
##########                     HBond_Acceptors:                   6
##########                        HBond_Donors:                   1
##########                         Heavy_Atoms:                  26
##########                          Grid_Score:          -26.225615
##########                     Grid_vdw_energy:          -25.924868
##########                      Grid_es_energy:           -0.300747
##########           Internal_energy_repulsive:           21.213493

@<TRIPOS>MOLECULE
ZINC000190927708
 52 53 1 0 0
SMALL
USER_CHARGES


@<TRIPOS>ATOM
      1 C1          1.9034    3.6107   45.1508 C.3     1  ZINC000190927708   -0.1500
      2 C2          1.0278    3.3107   46.3691 C.3     1  ZINC000190927708   -0.1500
      3 C3          1.9038    3.2379   47.6214 C.3     1  ZINC000190927708    0.1000
      4 N4          1.4911    2.0954   48.4402 N.am    1  ZINC000190927708   -0.5900
      5 C5          0.3010    2.1145   49.0727 C.2     1  ZINC000190927708    0.5300
      6 O6         -0.0412    1.1681   49.7494 O.2     1  ZINC000190927708   -0.5300
      7 C7         -0.6042    3.3118   48.9389 C.3     1  ZINC000190927708   -0.0800
      8 C8         -1.6122    3.3071   50.0592 C.2     1  ZINC000190927708   -0.1700
      9 C9         -2.8856    2.9069   49.8203 C.2     1  ZINC000190927708    0.0000
     10 C10        -3.8405    2.9136   50.9301 C.ar    1  ZINC000190927708   -0.1300
     11 C11        -5.1670    2.5109   50.7456 C.ar    1  ZINC000190927708   -0.0500
     12 C12        -6.0331    2.5278   51.8022 C.ar    1  ZINC000190927708   -0.1500
     13 C13        -5.6084    2.9412   53.0571 C.ar    1  ZINC000190927708   -0.0600
     14 C14        -4.3057    3.3428   53.2621 C.ar    1  ZINC000190927708   -0.1600
     15 C15        -3.4059    3.3335   52.2017 C.ar    1  ZINC000190927708    0.1900
     16 N16        -2.0972    3.7294   52.3782 N.am    1  ZINC000190927708   -0.6300
     17 C17        -1.2259    3.7138   51.3542 C.2     1  ZINC000190927708    0.5500
     18 O18        -0.0765    4.0707   51.5467 O.2     1  ZINC000190927708   -0.5300
     19 C19         2.3719    0.9322   48.5717 C.3     1  ZINC000190927708    0.1500
     20 H20         1.8808    0.1713   49.1785 H       1  ZINC000190927708    0.1400
     21 C21         3.6791    1.3557   49.2445 C.3     1  ZINC000190927708   -0.1300
     22 C22         3.3928    1.8029   50.6793 C.3     1  ZINC000190927708   -0.1500
     23 C23         2.6691    0.3702   47.2054 C.2     1  ZINC000190927708    0.4500
     24 O24         1.7741   -0.0783   46.5289 O.2     1  ZINC000190927708   -0.5000
     25 O25         3.9281    0.3679   46.7400 O.3     1  ZINC000190927708   -0.3500
     26 C26         4.1378   -0.1722   45.4086 C.3     1  ZINC000190927708    0.0600
     27 C27         5.6236   -0.0900   45.0530 C.3     1  ZINC000190927708   -0.1500
     28 H28         2.6432    2.8191   45.0313 H       1  ZINC000190927708    0.0600
     29 H29         1.2793    3.6626   44.2588 H       1  ZINC000190927708    0.0600
     30 H30         2.4117    4.5642   45.2946 H       1  ZINC000190927708    0.0600
     31 H31         0.2881    4.1024   46.4887 H       1  ZINC000190927708    0.0800
     32 H32         0.5195    2.3572   46.2253 H       1  ZINC000190927708    0.0700
     33 H33         2.9468    3.1174   47.3287 H       1  ZINC000190927708    0.0900
     34 H34         1.7918    4.1567   48.1970 H       1  ZINC000190927708    0.0900
     35 H35        -0.0098    4.2241   48.9888 H       1  ZINC000190927708    0.1100
     36 H36        -1.1243    3.2690   47.9819 H       1  ZINC000190927708    0.1200
     37 H37        -3.1887    2.5905   48.8332 H       1  ZINC000190927708    0.1400
     38 H38        -5.5053    2.1881   49.7721 H       1  ZINC000190927708    0.1400
     39 H39        -7.0577    2.2171   51.6593 H       1  ZINC000190927708    0.1300
     40 H40        -6.3059    2.9486   53.8818 H       1  ZINC000190927708    0.1300
     41 H41        -3.9850    3.6627   54.2425 H       1  ZINC000190927708    0.1300
     42 H42        -1.7996    4.0194   53.2547 H       1  ZINC000190927708    0.4200
     43 H43         4.3706    0.5132   49.2575 H       1  ZINC000190927708    0.0900
     44 H44         4.1230    2.1814   48.6883 H       1  ZINC000190927708    0.0800
     45 H45         4.3240    2.1047   51.1586 H       1  ZINC000190927708    0.0600
     46 H46         2.7013    2.6453   50.6662 H       1  ZINC000190927708    0.0600
     47 H47         2.9489    0.9771   51.2354 H       1  ZINC000190927708    0.0600
     48 H48         3.8154   -1.2132   45.3839 H       1  ZINC000190927708    0.0700
     49 H49         3.5590    0.4046   44.6872 H       1  ZINC000190927708    0.0700
     50 H50         5.9461    0.9509   45.0776 H       1  ZINC000190927708    0.0700
     51 H51         6.2024   -0.6668   45.7744 H       1  ZINC000190927708    0.0700
     52 H52         5.7809   -0.4955   44.0535 H       1  ZINC000190927708    0.0800
@<TRIPOS>BOND
     1     1     2    1
     2     1    28    1
     3     1    29    1
     4     1    30    1
     5     2     3    1
     6     2    31    1
     7     2    32    1
     8     3     4    1
     9     3    33    1
    10     3    34    1
    11     4     5   am
    12     4    19    1
    13     5     6    2
    14     5     7    1
    15     7     8    1
    16     7    35    1
    17     7    36    1
    18     8    17    1
    19     8     9    2
    20     9    10    1
    21     9    37    1
    22    10    15   ar
    23    10    11   ar
    24    11    12   ar
    25    11    38    1
    26    12    13   ar
    27    12    39    1
    28    13    14   ar
    29    13    40    1
    30    14    15   ar
    31    14    41    1
    32    15    16    1
    33    16    17   am
    34    16    42    1
    35    17    18    2
    36    19    20    1
    37    19    21    1
    38    19    23    1
    39    21    22    1
    40    21    43    1
    41    21    44    1
    42    22    45    1
    43    22    46    1
    44    22    47    1
    45    23    24    2
    46    23    25    1
    47    25    26    1
    48    26    27    1
    49    26    48    1
    50    26    49    1
    51    27    50    1
    52    27    51    1
    53    27    52    1
@<TRIPOS>SUBSTRUCTURE
     1 ZINC000190927708        1 TEMP              0 ****  ****    0 ROOT


##########                                Name:    ZINC000065993627
##########                DOCK_Rotatable_Bonds:                   7
##########                         Heavy_Atoms:                  28
##########                    Molecular_Weight:             382.462
##########                DOCK_Rotatable_Bonds:                   7
##########                       Formal_Charge:          -0.0200002
##########                     HBond_Acceptors:                   7
##########                        HBond_Donors:                   2
##########                         Heavy_Atoms:                  28
##########                          Grid_Score:          -26.223633
##########                     Grid_vdw_energy:          -26.377871
##########                      Grid_es_energy:            0.154238
##########           Internal_energy_repulsive:           10.720764

@<TRIPOS>MOLECULE
ZINC000065993627
 54 56 1 0 0
SMALL
USER_CHARGES


@<TRIPOS>ATOM
      1 C1        -13.8665   -2.3894   55.8238 C.3     1  ZINC000065993627   -0.1200
      2 C2        -13.3616   -1.7654   57.0991 C.ar    1  ZINC000065993627   -0.0700
      3 C3        -14.1328   -1.8128   58.2432 C.ar    1  ZINC000065993627   -0.1800
      4 C4        -13.6673   -1.2377   59.4188 C.ar    1  ZINC000065993627    0.2000
      5 N5        -14.4486   -1.2860   60.5785 N.pl3   1  ZINC000065993627   -0.6400
      6 C6        -15.0668   -0.0630   61.0966 C.3     1  ZINC000065993627    0.1000
      7 C7        -14.6486   -2.5595   61.2745 C.3     1  ZINC000065993627    0.0900
      8 C8        -12.4264   -0.6152   59.4429 C.ar    1  ZINC000065993627   -0.1800
      9 C9        -11.6553   -0.5680   58.2983 C.ar    1  ZINC000065993627   -0.0800
     10 C10       -12.1182   -1.1478   57.1250 C.ar    1  ZINC000065993627    0.1100
     11 N11       -11.3350   -1.1001   55.9632 N.am    1  ZINC000065993627   -0.6800
     12 C12       -11.3076    0.0202   55.2145 C.2     1  ZINC000065993627    0.7000
     13 O13       -11.9621    0.9897   55.5467 O.2     1  ZINC000065993627   -0.5700
     14 N14       -10.5546    0.0660   54.0976 N.am    1  ZINC000065993627   -0.7400
     15 C15       -10.5234    1.2845   53.2848 C.3     1  ZINC000065993627    0.2100
     16 H16       -10.9806    2.1035   53.8400 H       1  ZINC000065993627    0.1000
     17 C17       -11.3000    1.0519   51.9871 C.3     1  ZINC000065993627   -0.1600
     18 C18        -9.0943    1.6345   52.9590 C.ar    1  ZINC000065993627   -0.1200
     19 C19        -8.5575    2.8283   53.4050 C.ar    1  ZINC000065993627   -0.0800
     20 C20        -7.2481    3.1522   53.1080 C.ar    1  ZINC000065993627   -0.1500
     21 C21        -6.4705    2.2774   52.3607 C.ar    1  ZINC000065993627    0.1800
     22 N22        -5.1432    2.6023   52.0584 N.am    1  ZINC000065993627   -0.5700
     23 C23        -4.1209    3.0161   53.0316 C.3     1  ZINC000065993627    0.0600
     24 C24        -2.8647    3.2455   52.1692 C.3     1  ZINC000065993627    0.0400
     25 O25        -3.3062    2.9402   50.8147 O.3     1  ZINC000065993627   -0.3200
     26 C26        -4.5950    2.5817   50.8358 C.2     1  ZINC000065993627    0.6400
     27 O27        -5.2141    2.2742   49.8366 O.2     1  ZINC000065993627   -0.5000
     28 C28        -7.0125    1.0793   51.9143 C.ar    1  ZINC000065993627   -0.1500
     29 C29        -8.3209    0.7588   52.2194 C.ar    1  ZINC000065993627   -0.0800
     30 H30       -13.5507   -3.4317   55.7793 H       1  ZINC000065993627    0.0700
     31 H31       -14.9550   -2.3382   55.8004 H       1  ZINC000065993627    0.0700
     32 H32       -13.4590   -1.8495   54.9690 H       1  ZINC000065993627    0.0600
     33 H33       -15.0981   -2.2967   58.2241 H       1  ZINC000065993627    0.1200
     34 H34       -16.0556    0.0597   60.6546 H       1  ZINC000065993627    0.0500
     35 H35       -15.1595   -0.1338   62.1804 H       1  ZINC000065993627    0.0700
     36 H36       -14.4453    0.7950   60.8404 H       1  ZINC000065993627    0.0700
     37 H37       -14.0456   -3.3325   60.7981 H       1  ZINC000065993627    0.0800
     38 H38       -14.3479   -2.4549   62.3169 H       1  ZINC000065993627    0.0500
     39 H39       -15.7012   -2.8385   61.2263 H       1  ZINC000065993627    0.0500
     40 H40       -12.0644   -0.1676   60.3568 H       1  ZINC000065993627    0.1300
     41 H41       -10.6901   -0.0838   58.3170 H       1  ZINC000065993627    0.1500
     42 H42       -10.8128   -1.8734   55.6982 H       1  ZINC000065993627    0.4000
     43 H43       -10.0335   -0.7077   53.8319 H       1  ZINC000065993627    0.4000
     44 H44       -12.3337    0.7987   52.2228 H       1  ZINC000065993627    0.0700
     45 H45       -11.2767    1.9584   51.3823 H       1  ZINC000065993627    0.0700
     46 H46       -10.8428    0.2328   51.4319 H       1  ZINC000065993627    0.0600
     47 H47        -9.1630    3.5085   53.9858 H       1  ZINC000065993627    0.1300
     48 H48        -6.8295    4.0847   53.4562 H       1  ZINC000065993627    0.1600
     49 H49        -4.4174    3.9394   53.5294 H       1  ZINC000065993627    0.1000
     50 H50        -3.9451    2.2260   53.7616 H       1  ZINC000065993627    0.1000
     51 H51        -2.5370    4.2827   52.2397 H       1  ZINC000065993627    0.1100
     52 H52        -2.0648    2.5697   52.4718 H       1  ZINC000065993627    0.1100
     53 H53        -6.4104    0.3971   51.3326 H       1  ZINC000065993627    0.1300
     54 H54        -8.7428   -0.1729   51.8728 H       1  ZINC000065993627    0.1300
@<TRIPOS>BOND
     1     1     2    1
     2     1    30    1
     3     1    31    1
     4     1    32    1
     5     2    10   ar
     6     2     3   ar
     7     3     4   ar
     8     3    33    1
     9     4     5    1
    10     4     8   ar
    11     5     6    1
    12     5     7    1
    13     6    34    1
    14     6    35    1
    15     6    36    1
    16     7    37    1
    17     7    38    1
    18     7    39    1
    19     8     9   ar
    20     8    40    1
    21     9    10   ar
    22     9    41    1
    23    10    11    1
    24    11    12   am
    25    11    42    1
    26    12    13    2
    27    12    14   am
    28    14    15    1
    29    14    43    1
    30    15    16    1
    31    15    17    1
    32    15    18    1
    33    17    44    1
    34    17    45    1
    35    17    46    1
    36    18    29   ar
    37    18    19   ar
    38    19    20   ar
    39    19    47    1
    40    20    21   ar
    41    20    48    1
    42    21    22    1
    43    21    28   ar
    44    22    26   am
    45    22    23    1
    46    23    24    1
    47    23    49    1
    48    23    50    1
    49    24    25    1
    50    24    51    1
    51    24    52    1
    52    25    26    1
    53    26    27    2
    54    28    29   ar
    55    28    53    1
    56    29    54    1
@<TRIPOS>SUBSTRUCTURE
     1 ZINC000065993627        1 TEMP              0 ****  ****    0 ROOT


##########                                Name:    ZINC001078748831
##########                DOCK_Rotatable_Bonds:                   6
##########                         Heavy_Atoms:                  23
##########                    Molecular_Weight:             333.417
##########                DOCK_Rotatable_Bonds:                   6
##########                       Formal_Charge:           0.0299999
##########                     HBond_Acceptors:                   9
##########                        HBond_Donors:                   2
##########                         Heavy_Atoms:                  23
##########                          Grid_Score:          -26.220285
##########                     Grid_vdw_energy:          -24.854912
##########                      Grid_es_energy:           -1.365373
##########           Internal_energy_repulsive:            8.154079

@<TRIPOS>MOLECULE
ZINC001078748831
 42 45 1 0 0
SMALL
USER_CHARGES


@<TRIPOS>ATOM
      1 C1         -7.5375    0.9643   52.3088 C.3     1  ZINC001078748831    0.1000
      2 N2         -8.7523    0.3395   52.8383 N.pl3   1  ZINC001078748831   -0.1400
      3 N3         -9.6406   -0.2477   52.1188 N.2     1  ZINC001078748831   -0.2900
      4 C4        -10.5948   -0.6965   52.8982 C.2     1  ZINC001078748831    0.0400
      5 C5        -10.2229   -0.3324   54.2078 C.2     1  ZINC001078748831   -0.0500
      6 C6        -10.9642   -0.6061   55.4569 C.2     1  ZINC001078748831    0.6200
      7 O7        -12.0412   -1.1680   55.4137 O.2     1  ZINC001078748831   -0.5200
      8 N8        -10.4459   -0.2327   56.6436 N.am    1  ZINC001078748831   -0.7000
      9 C9        -11.1815   -0.5025   57.8816 C.3     1  ZINC001078748831    0.1500
     10 H10       -12.2628   -0.4725   57.7473 H       1  ZINC001078748831    0.1100
     11 C11       -10.6855    0.3179   59.0862 C.3     1  ZINC001078748831   -0.1800
     12 C12        -9.7062   -0.8344   59.3748 C.3     1  ZINC001078748831    0.0800
     13 H13        -8.7443   -0.7270   58.8736 H       1  ZINC001078748831    0.1000
     14 N14        -9.5737   -1.1518   60.8030 N.3     1  ZINC001078748831   -0.6700
     15 C15        -8.4274   -0.4489   61.3944 C.3     1  ZINC001078748831    0.1400
     16 C16        -8.8269    0.9627   61.7391 C.2     1  ZINC001078748831    0.0600
     17 N17        -8.6609    1.9809   60.9412 N.2     1  ZINC001078748831   -0.5700
     18 S18        -9.1984    3.2592   61.6556 S.3     1  ZINC001078748831    0.6800
     19 N19        -9.6637    2.6053   62.9934 N.2     1  ZINC001078748831   -0.5700
     20 C20        -9.4165    1.3261   62.9341 C.2     1  ZINC001078748831    0.0500
     21 C21       -10.6900   -1.7422   58.6297 C.3     1  ZINC001078748831   -0.1000
     22 C22       -11.6618   -2.6464   59.3886 C.3     1  ZINC001078748831   -0.1000
     23 C23       -11.5849   -3.5972   58.1803 C.3     1  ZINC001078748831   -0.1400
     24 C24       -10.2068   -2.9821   57.8766 C.3     1  ZINC001078748831   -0.1200
     25 N25        -9.0669    0.3020   54.0846 N.2     1  ZINC001078748831   -0.2500
     26 H26        -6.7344    0.2280   52.2773 H       1  ZINC001078748831    0.1000
     27 H27        -7.7293    1.3361   51.3023 H       1  ZINC001078748831    0.1100
     28 H28        -7.2451    1.7937   52.9529 H       1  ZINC001078748831    0.1100
     29 H29       -11.4825   -1.2336   52.5984 H       1  ZINC001078748831    0.2100
     30 H30        -9.5859    0.2146   56.6782 H       1  ZINC001078748831    0.4100
     31 H31       -10.1928    1.2491   58.8065 H       1  ZINC001078748831    0.0700
     32 H32       -11.4397    0.4537   59.8614 H       1  ZINC001078748831    0.1000
     33 H33       -10.4248   -0.9386   61.3012 H       1  ZINC001078748831    0.3500
     34 H34        -8.1102   -0.9679   62.2989 H       1  ZINC001078748831    0.1000
     35 H35        -7.6048   -0.4294   60.6794 H       1  ZINC001078748831    0.0600
     36 H36        -9.6413    0.6319   63.7303 H       1  ZINC001078748831    0.2000
     37 H37       -11.2444   -3.0670   60.3035 H       1  ZINC001078748831    0.1000
     38 H38       -12.6471   -2.2041   59.5353 H       1  ZINC001078748831    0.0700
     39 H39       -11.5410   -4.6507   58.4565 H       1  ZINC001078748831    0.0700
     40 H40       -12.3328   -3.3908   57.4147 H       1  ZINC001078748831    0.0800
     41 H41       -10.0297   -2.8079   56.8152 H       1  ZINC001078748831    0.0700
     42 H42        -9.3803   -3.4970   58.3664 H       1  ZINC001078748831    0.0900
@<TRIPOS>BOND
     1     1     2    1
     2     1    26    1
     3     1    27    1
     4     1    28    1
     5     2    25    1
     6     2     3    1
     7     3     4    2
     8     4     5    1
     9     4    29    1
    10     5     6    1
    11     5    25    2
    12     6     7    2
    13     6     8   am
    14     8     9    1
    15     8    30    1
    16     9    10    1
    17     9    21    1
    18     9    11    1
    19    11    12    1
    20    11    31    1
    21    11    32    1
    22    12    13    1
    23    12    14    1
    24    12    21    1
    25    14    15    1
    26    14    33    1
    27    15    16    1
    28    15    34    1
    29    15    35    1
    30    16    20    1
    31    16    17    2
    32    17    18    1
    33    18    19    1
    34    19    20    2
    35    20    36    1
    36    21    24    1
    37    21    22    1
    38    22    23    1
    39    22    37    1
    40    22    38    1
    41    23    24    1
    42    23    39    1
    43    23    40    1
    44    24    41    1
    45    24    42    1
@<TRIPOS>SUBSTRUCTURE
     1 ZINC001078748831        1 TEMP              0 ****  ****    0 ROOT


##########                                Name:    ZINC001341052241
##########                DOCK_Rotatable_Bonds:                   7
##########                         Heavy_Atoms:                  24
##########                    Molecular_Weight:             336.478
##########                DOCK_Rotatable_Bonds:                   7
##########                       Formal_Charge:         5.96046e-08
##########                     HBond_Acceptors:                   6
##########                        HBond_Donors:                   0
##########                         Heavy_Atoms:                  24
##########                          Grid_Score:          -26.209597
##########                     Grid_vdw_energy:          -25.828098
##########                      Grid_es_energy:           -0.381498
##########           Internal_energy_repulsive:           14.383386

@<TRIPOS>MOLECULE
ZINC001341052241
 56 58 1 0 0
SMALL
USER_CHARGES


@<TRIPOS>ATOM
      1 C1         -5.9146    4.3465   52.3684 C.3     1  ZINC001341052241   -0.1700
      2 C2         -5.6153    2.9237   52.8448 C.3     1  ZINC001341052241    0.1100
      3 N3         -6.2484    2.7015   54.1471 N.pl3   1  ZINC001341052241   -0.4500
      4 C4         -5.6817    2.8703   55.3800 C.2     1  ZINC001341052241    0.1800
      5 C5         -4.2730    3.3262   55.6608 C.3     1  ZINC001341052241    0.1500
      6 O6         -3.8524    2.8197   56.9291 O.3     1  ZINC001341052241   -0.3700
      7 C7         -2.5182    3.1855   57.2875 C.3     1  ZINC001341052241    0.0900
      8 C8         -2.4069    4.7101   57.3506 C.3     1  ZINC001341052241   -0.1400
      9 C9         -0.9785    5.1016   57.7345 C.3     1  ZINC001341052241   -0.1200
     10 C10        -0.0028    4.5620   56.6867 C.3     1  ZINC001341052241   -0.1200
     11 C11        -0.1141    3.0374   56.6235 C.3     1  ZINC001341052241   -0.1200
     12 C12        -1.5425    2.6459   56.2397 C.3     1  ZINC001341052241   -0.1200
     13 N13        -6.5857    2.5648   56.2672 N.2     1  ZINC001341052241   -0.2600
     14 N14        -7.6784    2.2225   55.6833 N.2     1  ZINC001341052241   -0.3100
     15 C15        -7.5257    2.2827   54.3813 C.2     1  ZINC001341052241    0.3500
     16 N16        -8.4828    1.9833   53.4250 N.3     1  ZINC001341052241   -0.4600
     17 C17        -8.7617    0.5419   53.3929 C.3     1  ZINC001341052241    0.0700
     18 C18        -9.7102    0.2302   52.2330 C.3     1  ZINC001341052241   -0.1100
     19 C19       -11.0108    1.0166   52.4182 C.3     1  ZINC001341052241   -0.0900
     20 C20       -11.9392    0.7563   51.2301 C.3     1  ZINC001341052241    0.0700
     21 O21       -13.2768    1.1141   51.5836 O.3     1  ZINC001341052241   -0.3900
     22 C22       -14.2197    0.9603   50.5209 C.3     1  ZINC001341052241    0.0300
     23 C23       -10.6875    2.5112   52.4970 C.3     1  ZINC001341052241   -0.1100
     24 C24        -9.7108    2.7568   53.6493 C.3     1  ZINC001341052241    0.0700
     25 H25        -6.9928    4.4827   52.2856 H       1  ZINC001341052241    0.0600
     26 H26        -5.5119    5.0620   53.0853 H       1  ZINC001341052241    0.0700
     27 H27        -5.4521    4.5085   51.3946 H       1  ZINC001341052241    0.0800
     28 H28        -4.5374    2.7908   52.9374 H       1  ZINC001341052241    0.0900
     29 H29        -6.0088    2.2084   52.1227 H       1  ZINC001341052241    0.1000
     30 H30        -3.6082    2.9527   54.8819 H       1  ZINC001341052241    0.0900
     31 H31        -4.2398    4.4156   55.6753 H       1  ZINC001341052241    0.0700
     32 H32        -2.2750    2.7626   58.2623 H       1  ZINC001341052241    0.0600
     33 H33        -2.6501    5.1329   56.3759 H       1  ZINC001341052241    0.0700
     34 H34        -3.1019    5.0945   58.0971 H       1  ZINC001341052241    0.0700
     35 H35        -0.7353    4.6789   58.7093 H       1  ZINC001341052241    0.0600
     36 H36        -0.8992    6.1879   57.7794 H       1  ZINC001341052241    0.0700
     37 H37         1.0148    4.8410   56.9601 H       1  ZINC001341052241    0.0600
     38 H38        -0.2460    4.9847   55.7119 H       1  ZINC001341052241    0.0600
     39 H39         0.1291    2.6146   57.5983 H       1  ZINC001341052241    0.0600
     40 H40         0.5810    2.6530   55.8771 H       1  ZINC001341052241    0.0700
     41 H41        -1.6219    1.5596   56.1948 H       1  ZINC001341052241    0.0700
     42 H42        -1.7857    3.0686   55.2649 H       1  ZINC001341052241    0.0700
     43 H43        -9.2255    0.2406   54.3322 H       1  ZINC001341052241    0.0600
     44 H44        -7.8291   -0.0055   53.2566 H       1  ZINC001341052241    0.0800
     45 H45        -9.9293   -0.8374   52.2189 H       1  ZINC001341052241    0.0800
     46 H46        -9.2414    0.5185   51.2921 H       1  ZINC001341052241    0.0800
     47 H47       -11.5001    0.6997   53.3391 H       1  ZINC001341052241    0.0800
     48 H48       -11.9037   -0.3006   50.9660 H       1  ZINC001341052241    0.0500
     49 H49       -11.6160    1.3547   50.3784 H       1  ZINC001341052241    0.0500
     50 H50       -13.9284    1.5926   49.6823 H       1  ZINC001341052241    0.0400
     51 H51       -15.2105    1.2522   50.8692 H       1  ZINC001341052241    0.0900
     52 H52       -14.2394   -0.0815   50.2007 H       1  ZINC001341052241    0.0400
     53 H53       -10.2342    2.8354   51.5602 H       1  ZINC001341052241    0.0700
     54 H54       -11.6050    3.0732   52.6715 H       1  ZINC001341052241    0.0800
     55 H55       -10.1701    2.4452   54.5874 H       1  ZINC001341052241    0.0600
     56 H56        -9.4675    3.8181   53.6991 H       1  ZINC001341052241    0.0800
@<TRIPOS>BOND
     1     1     2    1
     2     1    25    1
     3     1    26    1
     4     1    27    1
     5     2     3    1
     6     2    28    1
     7     2    29    1
     8     3    15    1
     9     3     4    1
    10     4     5    1
    11     4    13    2
    12     5     6    1
    13     5    30    1
    14     5    31    1
    15     6     7    1
    16     7    12    1
    17     7     8    1
    18     7    32    1
    19     8     9    1
    20     8    33    1
    21     8    34    1
    22     9    10    1
    23     9    35    1
    24     9    36    1
    25    10    11    1
    26    10    37    1
    27    10    38    1
    28    11    12    1
    29    11    39    1
    30    11    40    1
    31    12    41    1
    32    12    42    1
    33    13    14    1
    34    14    15    2
    35    15    16    1
    36    16    24    1
    37    16    17    1
    38    17    18    1
    39    17    43    1
    40    17    44    1
    41    18    19    1
    42    18    45    1
    43    18    46    1
    44    19    20    1
    45    19    23    1
    46    19    47    1
    47    20    21    1
    48    20    48    1
    49    20    49    1
    50    21    22    1
    51    22    50    1
    52    22    51    1
    53    22    52    1
    54    23    24    1
    55    23    53    1
    56    23    54    1
    57    24    55    1
    58    24    56    1
@<TRIPOS>SUBSTRUCTURE
     1 ZINC001341052241        1 TEMP              0 ****  ****    0 ROOT


##########                                Name:    ZINC001579482641
##########                DOCK_Rotatable_Bonds:                   5
##########                         Heavy_Atoms:                  26
##########                    Molecular_Weight:             355.359
##########                DOCK_Rotatable_Bonds:                   5
##########                       Formal_Charge:                0.05
##########                     HBond_Acceptors:                  11
##########                        HBond_Donors:                   1
##########                         Heavy_Atoms:                  26
##########                          Grid_Score:          -26.185251
##########                     Grid_vdw_energy:          -23.272038
##########                      Grid_es_energy:           -2.913213
##########           Internal_energy_repulsive:           16.121628

@<TRIPOS>MOLECULE
ZINC001579482641
 43 46 1 0 0
SMALL
USER_CHARGES


@<TRIPOS>ATOM
      1 C1        -14.6616    0.0717   48.9662 C.3     1  ZINC001579482641    0.0300
      2 O2        -13.6996    0.2217   50.0435 O.3     1  ZINC001579482641   -0.3300
      3 C3        -14.1791    0.6050   51.2427 C.2     1  ZINC001579482641    0.5300
      4 O4        -15.3699    0.7971   51.3875 O.2     1  ZINC001579482641   -0.4900
      5 C5        -13.2569    0.7918   52.3816 C.ar    1  ZINC001579482641    0.0900
      6 C6        -13.7678    1.1501   53.6303 C.ar    1  ZINC001579482641   -0.0800
      7 C7        -12.9003    1.3238   54.6933 C.ar    1  ZINC001579482641   -0.1200
      8 C8        -11.5375    1.1333   54.4776 C.ar    1  ZINC001579482641    0.1100
      9 N9        -10.6313    1.2967   55.5164 N.3     1  ZINC001579482641   -0.4600
     10 C10       -10.7021    2.6718   56.0733 C.3     1  ZINC001579482641    0.0400
     11 C11       -10.0670    2.5185   57.4782 C.3     1  ZINC001579482641   -0.1100
     12 C12       -10.5757    1.1330   57.9383 C.3     1  ZINC001579482641   -0.0100
     13 H13       -11.4541    1.2446   58.5739 H       1  ZINC001579482641    0.0900
     14 C14        -9.4881    0.3948   58.6752 C.2     1  ZINC001579482641    0.1800
     15 N15        -8.2065    0.4684   58.4394 N.2     1  ZINC001579482641   -0.2600
     16 N16        -7.5713   -0.2933   59.2577 N.2     1  ZINC001579482641   -0.2900
     17 C17        -8.4188   -0.8876   60.0529 C.2     1  ZINC001579482641    0.1500
     18 N18        -9.6590   -0.4640   59.7092 N.pl3   1  ZINC001579482641   -0.4800
     19 C19       -10.9279   -0.8605   60.3249 C.3     1  ZINC001579482641    0.0700
     20 C20       -10.9454    0.3894   56.6414 C.3     1  ZINC001579482641    0.0600
     21 C21       -11.0924    0.7731   53.1942 C.ar    1  ZINC001579482641    0.2300
     22 C22        -9.6439    0.5668   52.9492 C.2     1  ZINC001579482641    0.2100
     23 N23        -8.6486    1.0073   53.6934 N.2     1  ZINC001579482641   -0.2600
     24 N24        -7.5471    0.6206   53.1477 N.pl3   1  ZINC001579482641   -0.2300
     25 N25        -7.8123   -0.0506   52.0817 N.2     1  ZINC001579482641   -0.0500
     26 N26        -9.0920   -0.1088   51.9309 N.2     1  ZINC001579482641   -0.2000
     27 N27       -11.9531    0.6114   52.2056 N.ar    1  ZINC001579482641   -0.4000
     28 H28       -15.1619    1.0240   48.7907 H       1  ZINC001579482641    0.0700
     29 H29       -14.1448   -0.2400   48.0584 H       1  ZINC001579482641    0.1100
     30 H30       -15.4000   -0.6816   49.2408 H       1  ZINC001579482641    0.0700
     31 H31       -14.8302    1.2907   53.7649 H       1  ZINC001579482641    0.1600
     32 H32       -13.2712    1.6013   55.6690 H       1  ZINC001579482641    0.1600
     33 H33       -10.1228    3.3645   55.4627 H       1  ZINC001579482641    0.1000
     34 H34       -11.7379    3.0016   56.1532 H       1  ZINC001579482641    0.0600
     35 H35        -8.9790    2.5277   57.4127 H       1  ZINC001579482641    0.1000
     36 H36       -10.4207    3.3015   58.1489 H       1  ZINC001579482641    0.0800
     37 H37        -8.1761   -1.5847   60.8413 H       1  ZINC001579482641    0.2200
     38 H38       -11.1617   -0.1816   61.1449 H       1  ZINC001579482641    0.0800
     39 H39       -11.7224   -0.8175   59.5799 H       1  ZINC001579482641    0.0900
     40 H40       -10.8437   -1.8776   60.7079 H       1  ZINC001579482641    0.0900
     41 H41       -12.0090    0.1510   56.6404 H       1  ZINC001579482641    0.0600
     42 H42       -10.3573   -0.5243   56.5568 H       1  ZINC001579482641    0.1000
     43 H43        -6.6574    0.8065   53.4868 H       1  ZINC001579482641    0.4800
@<TRIPOS>BOND
     1     1     2    1
     2     1    28    1
     3     1    29    1
     4     1    30    1
     5     2     3    1
     6     3     4    2
     7     3     5    1
     8     5    27   ar
     9     5     6   ar
    10     6     7   ar
    11     6    31    1
    12     7     8   ar
    13     7    32    1
    14     8     9    1
    15     8    21   ar
    16     9    20    1
    17     9    10    1
    18    10    11    1
    19    10    33    1
    20    10    34    1
    21    11    12    1
    22    11    35    1
    23    11    36    1
    24    12    13    1
    25    12    14    1
    26    12    20    1
    27    14    18    1
    28    14    15    2
    29    15    16    1
    30    16    17    2
    31    17    18    1
    32    17    37    1
    33    18    19    1
    34    19    38    1
    35    19    39    1
    36    19    40    1
    37    20    41    1
    38    20    42    1
    39    21    22    1
    40    21    27   ar
    41    22    26    1
    42    22    23    2
    43    23    24    1
    44    24    25    1
    45    24    43    1
    46    25    26    2
@<TRIPOS>SUBSTRUCTURE
     1 ZINC001579482641        1 TEMP              0 ****  ****    0 ROOT


##########                                Name:    ZINC000151303733
##########                DOCK_Rotatable_Bonds:                   7
##########                         Heavy_Atoms:                  26
##########                    Molecular_Weight:             369.444
##########                DOCK_Rotatable_Bonds:                   7
##########                       Formal_Charge:        -1.93715e-07
##########                     HBond_Acceptors:                   7
##########                        HBond_Donors:                   2
##########                         Heavy_Atoms:                  26
##########                          Grid_Score:          -26.168228
##########                     Grid_vdw_energy:          -25.844564
##########                      Grid_es_energy:           -0.323664
##########           Internal_energy_repulsive:            8.563132

@<TRIPOS>MOLECULE
ZINC000151303733
 45 48 1 0 0
SMALL
USER_CHARGES


@<TRIPOS>ATOM
      1 C1        -11.5661    2.8658   53.3089 C.3     1  ZINC000151303733   -0.1000
      2 C2        -10.9093    1.5843   52.8646 C.2     1  ZINC000151303733   -0.1200
      3 C3        -11.1955    0.9968   51.7021 C.2     1  ZINC000151303733   -0.2000
      4 S4        -10.2399   -0.4692   51.5273 S.3     1  ZINC000151303733    0.1200
      5 C5         -9.4793   -0.1981   53.0897 C.2     1  ZINC000151303733   -0.2400
      6 C6         -9.9561    0.9287   53.6315 C.2     1  ZINC000151303733    0.1200
      7 N7         -9.5315    1.4063   54.8852 N.am    1  ZINC000151303733   -0.6400
      8 C8         -9.8205    0.7124   56.0039 C.2     1  ZINC000151303733    0.5100
      9 O9        -10.4467   -0.3240   55.9300 O.2     1  ZINC000151303733   -0.5100
     10 C10        -9.3659    1.2240   57.3465 C.3     1  ZINC000151303733    0.1000
     11 N11        -9.8516    0.3293   58.4000 N.am    1  ZINC000151303733   -0.7100
     12 C12        -9.1066    0.1207   59.5036 C.2     1  ZINC000151303733    0.5200
     13 O13        -8.0334    0.6727   59.6239 O.2     1  ZINC000151303733   -0.5100
     14 C14        -9.6072   -0.7981   60.5880 C.3     1  ZINC000151303733    0.1600
     15 H15        -8.8328   -1.5167   60.8566 H       1  ZINC000151303733    0.1300
     16 C16       -10.8466   -1.5212   60.1236 C.ar    1  ZINC000151303733   -0.0900
     17 C17       -11.0990   -2.3870   59.0852 C.ar    1  ZINC000151303733   -0.0900
     18 C18       -12.3728   -2.9013   58.9074 C.ar    1  ZINC000151303733   -0.0800
     19 C19       -13.3931   -2.5465   59.7718 C.ar    1  ZINC000151303733   -0.1200
     20 C20       -13.1506   -1.6786   60.8167 C.ar    1  ZINC000151303733   -0.0400
     21 C21       -11.8696   -1.1562   61.0023 C.ar    1  ZINC000151303733   -0.1500
     22 C22       -11.3103   -0.2276   62.0032 C.2     1  ZINC000151303733    0.5600
     23 O23       -11.9408    0.2766   62.9118 O.2     1  ZINC000151303733   -0.5100
     24 N24       -10.0024   -0.0186   61.7667 N.am    1  ZINC000151303733   -0.5700
     25 C25        -9.1199    0.8446   62.5556 C.3     1  ZINC000151303733    0.0900
     26 C26        -8.9265    0.4958   64.0328 C.3     1  ZINC000151303733   -0.1800
     27 C27        -7.7937    0.2505   63.0341 C.3     1  ZINC000151303733   -0.1900
     28 H28       -10.9819    3.7152   52.9550 H       1  ZINC000151303733    0.0700
     29 H29       -12.5733    2.9202   52.8956 H       1  ZINC000151303733    0.0700
     30 H30       -11.6183    2.8889   54.3974 H       1  ZINC000151303733    0.0600
     31 H31       -11.9070    1.3651   50.9778 H       1  ZINC000151303733    0.1700
     32 H32        -8.7376   -0.8406   53.5408 H       1  ZINC000151303733    0.2000
     33 H33        -9.0310    2.2350   54.9443 H       1  ZINC000151303733    0.4200
     34 H34        -8.2767    1.2580   57.3725 H       1  ZINC000151303733    0.1100
     35 H35        -9.7647    2.2254   57.5079 H       1  ZINC000151303733    0.1100
     36 H36       -10.7095   -0.1131   58.3032 H       1  ZINC000151303733    0.4100
     37 H37       -10.3046   -2.6655   58.4086 H       1  ZINC000151303733    0.1300
     38 H38       -12.5701   -3.5808   58.0916 H       1  ZINC000151303733    0.1400
     39 H39       -14.3842   -2.9506   59.6277 H       1  ZINC000151303733    0.1400
     40 H40       -13.9499   -1.4045   61.4894 H       1  ZINC000151303733    0.1400
     41 H41        -9.1299    1.9003   62.2846 H       1  ZINC000151303733    0.1400
     42 H42        -8.8093    1.3222   64.7338 H       1  ZINC000151303733    0.1000
     43 H43        -9.4559   -0.3758   64.4176 H       1  ZINC000151303733    0.1300
     44 H44        -7.5777   -0.7826   62.7619 H       1  ZINC000151303733    0.1000
     45 H45        -6.9311    0.9154   63.0782 H       1  ZINC000151303733    0.1000
@<TRIPOS>BOND
     1     1     2    1
     2     1    28    1
     3     1    29    1
     4     1    30    1
     5     2     6    1
     6     2     3    2
     7     3     4    1
     8     3    31    1
     9     4     5    1
    10     5     6    2
    11     5    32    1
    12     6     7    1
    13     7     8   am
    14     7    33    1
    15     8     9    2
    16     8    10    1
    17    10    11    1
    18    10    34    1
    19    10    35    1
    20    11    12   am
    21    11    36    1
    22    12    13    2
    23    12    14    1
    24    14    15    1
    25    14    24    1
    26    14    16    1
    27    16    21   ar
    28    16    17   ar
    29    17    18   ar
    30    17    37    1
    31    18    19   ar
    32    18    38    1
    33    19    20   ar
    34    19    39    1
    35    20    21   ar
    36    20    40    1
    37    21    22    1
    38    22    23    2
    39    22    24   am
    40    24    25    1
    41    25    27    1
    42    25    26    1
    43    25    41    1
    44    26    27    1
    45    26    42    1
    46    26    43    1
    47    27    44    1
    48    27    45    1
@<TRIPOS>SUBSTRUCTURE
     1 ZINC000151303733        1 TEMP              0 ****  ****    0 ROOT


##########                                Name:    ZINC000629379364
##########                DOCK_Rotatable_Bonds:                   5
##########                         Heavy_Atoms:                  23
##########                    Molecular_Weight:             386.261
##########                DOCK_Rotatable_Bonds:                   5
##########                       Formal_Charge:               -0.02
##########                     HBond_Acceptors:                   5
##########                        HBond_Donors:                   1
##########                         Heavy_Atoms:                  23
##########                          Grid_Score:          -26.152372
##########                     Grid_vdw_energy:          -23.959970
##########                      Grid_es_energy:           -2.192402
##########           Internal_energy_repulsive:           20.251143

@<TRIPOS>MOLECULE
ZINC000629379364
 44 46 1 0 0
SMALL
USER_CHARGES


@<TRIPOS>ATOM
      1 O1          0.0281    0.8937   49.2748 O.co2   1  ZINC000629379364   -0.6800
      2 C2         -0.6152    1.7804   48.7398 C.2     1  ZINC000629379364    0.5000
      3 O3         -1.0991    1.6012   47.6351 O.co2   1  ZINC000629379364   -0.6900
      4 C4         -0.8178    3.0959   49.4465 C.3     1  ZINC000629379364   -0.1600
      5 H5         -1.2650    3.8196   48.7649 H       1  ZINC000629379364    0.0800
      6 C6          0.5298    3.6265   49.9664 C.3     1  ZINC000629379364   -0.1300
      7 C7          0.3394    4.8832   50.8104 C.3     1  ZINC000629379364   -0.0100
      8 N8         -0.6185    4.6644   51.9114 N.4     1  ZINC000629379364   -0.3700
      9 H9         -0.7230    5.5122   52.4484 H       1  ZINC000629379364    0.4200
     10 C10        -0.1417    3.5795   52.7795 C.3     1  ZINC000629379364   -0.0200
     11 C11         0.8369    4.1443   53.8110 C.3     1  ZINC000629379364    0.0300
     12 O12         1.4121    3.0714   54.5593 O.3     1  ZINC000629379364   -0.3200
     13 C13         0.8550    2.7937   55.7674 C.ar    1  ZINC000629379364    0.1600
     14 C14        -0.5131    2.9297   55.9487 C.ar    1  ZINC000629379364   -0.2300
     15 C15        -1.0783    2.6462   57.1797 C.ar    1  ZINC000629379364    0.1500
     16 F16        -2.4110    2.7784   57.3576 F       1  ZINC000629379364   -0.1200
     17 C17        -0.2782    2.2270   58.2291 C.ar    1  ZINC000629379364   -0.1600
     18 C18         1.0868    2.0915   58.0491 C.ar    1  ZINC000629379364   -0.0300
     19 Br19        2.1767    1.5186   59.4843 Br      1  ZINC000629379364   -0.0100
     20 C20         1.6537    2.3682   56.8192 C.ar    1  ZINC000629379364   -0.1300
     21 C21        -1.8924    4.2976   51.3142 C.3     1  ZINC000629379364   -0.0100
     22 H22        -2.1756    5.0311   50.5593 H       1  ZINC000629379364    0.1400
     23 C23        -3.0560    4.0664   52.2839 C.3     1  ZINC000629379364   -0.1300
     24 C24        -4.0218    3.1696   51.4627 C.3     1  ZINC000629379364   -0.1200
     25 C25        -3.1546    2.4557   50.3965 C.3     1  ZINC000629379364   -0.1100
     26 C26        -1.7134    2.9018   50.6580 C.3     1  ZINC000629379364   -0.0700
     27 H27        -1.2433    2.2349   51.3807 H       1  ZINC000629379364    0.1000
     28 H28         1.0064    2.8570   50.5737 H       1  ZINC000629379364    0.0800
     29 H29         1.1731    3.8601   49.1180 H       1  ZINC000629379364    0.1100
     30 H30         1.3013    5.1782   51.2300 H       1  ZINC000629379364    0.1200
     31 H31        -0.0296    5.6866   50.1730 H       1  ZINC000629379364    0.1300
     32 H32        -0.9895    3.1261   53.2932 H       1  ZINC000629379364    0.1400
     33 H33         0.3625    2.8255   52.1751 H       1  ZINC000629379364    0.1700
     34 H34         1.6265    4.6947   53.2993 H       1  ZINC000629379364    0.1100
     35 H35         0.3059    4.8148   54.4867 H       1  ZINC000629379364    0.0900
     36 H36        -1.1369    3.2567   55.1300 H       1  ZINC000629379364    0.1500
     37 H37        -0.7202    2.0056   59.1894 H       1  ZINC000629379364    0.1500
     38 H38         2.7194    2.2618   56.6795 H       1  ZINC000629379364    0.1500
     39 H39        -2.7145    3.5465   53.1789 H       1  ZINC000629379364    0.0800
     40 H40        -3.5344    5.0106   52.5441 H       1  ZINC000629379364    0.0900
     41 H41        -4.4943    2.4343   52.1140 H       1  ZINC000629379364    0.0800
     42 H42        -4.7809    3.7833   50.9778 H       1  ZINC000629379364    0.0800
     43 H43        -3.2495    1.3743   50.4952 H       1  ZINC000629379364    0.0900
     44 H44        -3.4506    2.7716   49.3961 H       1  ZINC000629379364    0.0800
@<TRIPOS>BOND
     1     1     2   ar
     2     2     3   ar
     3     2     4    1
     4     4     5    1
     5     4    26    1
     6     4     6    1
     7     6     7    1
     8     6    28    1
     9     6    29    1
    10     7     8    1
    11     7    30    1
    12     7    31    1
    13     8     9    1
    14     8    10    1
    15     8    21    1
    16    10    11    1
    17    10    32    1
    18    10    33    1
    19    11    12    1
    20    11    34    1
    21    11    35    1
    22    12    13    1
    23    13    20   ar
    24    13    14   ar
    25    14    15   ar
    26    14    36    1
    27    15    16    1
    28    15    17   ar
    29    17    18   ar
    30    17    37    1
    31    18    19    1
    32    18    20   ar
    33    20    38    1
    34    21    22    1
    35    21    26    1
    36    21    23    1
    37    23    24    1
    38    23    39    1
    39    23    40    1
    40    24    25    1
    41    24    41    1
    42    24    42    1
    43    25    26    1
    44    25    43    1
    45    25    44    1
    46    26    27    1
@<TRIPOS>SUBSTRUCTURE
     1 ZINC000629379364        1 TEMP              0 ****  ****    0 ROOT


##########                                Name:    ZINC001272744746
##########                DOCK_Rotatable_Bonds:                   6
##########                         Heavy_Atoms:                  25
##########                    Molecular_Weight:             348.417
##########                DOCK_Rotatable_Bonds:                   6
##########                       Formal_Charge:           0.0299999
##########                     HBond_Acceptors:                   6
##########                        HBond_Donors:                   1
##########                         Heavy_Atoms:                  25
##########                          Grid_Score:          -26.148626
##########                     Grid_vdw_energy:          -25.436796
##########                      Grid_es_energy:           -0.711830
##########           Internal_energy_repulsive:           31.939516

@<TRIPOS>MOLECULE
ZINC001272744746
 50 52 1 0 0
SMALL
USER_CHARGES


@<TRIPOS>ATOM
      1 C1         -6.8389    1.3396   51.3630 C.2     1  ZINC001272744746   -0.1700
      2 C2         -7.8502    1.4631   52.1864 C.2     1  ZINC001272744746   -0.1700
      3 C3         -8.0249    0.4831   53.3177 C.3     1  ZINC001272744746    0.1500
      4 N4         -9.4492    0.1877   53.4924 N.am    1  ZINC001272744746   -0.6100
      5 C5        -10.2072    0.4579   54.7215 C.3     1  ZINC001272744746    0.0700
      6 C6        -11.6879    0.3886   54.3102 C.3     1  ZINC001272744746    0.1100
      7 C7        -11.6452   -0.5188   53.0671 C.3     1  ZINC001272744746   -0.1500
      8 C8        -10.2322   -0.3606   52.5462 C.2     1  ZINC001272744746    0.5200
      9 O9         -9.8589   -0.6878   51.4396 O.2     1  ZINC001272744746   -0.5200
     10 C10       -12.2073    1.7721   53.9444 C.3     1  ZINC001272744746   -0.1000
     11 C11       -12.2183    2.6576   55.1952 C.3     1  ZINC001272744746   -0.1200
     12 C12       -13.0601    1.9802   56.2801 C.3     1  ZINC001272744746   -0.1200
     13 C13       -12.4778    0.5988   56.5872 C.3     1  ZINC001272744746    0.0500
     14 N14       -12.4901   -0.2204   55.3668 N.3     1  ZINC001272744746   -0.5100
     15 C15       -12.0387   -1.5899   55.6475 C.3     1  ZINC001272744746    0.0800
     16 C16       -12.2536   -1.9006   57.1063 C.ar    1  ZINC001272744746   -0.0200
     17 C17       -13.4789   -2.3733   57.5373 C.ar    1  ZINC001272744746   -0.1700
     18 C18       -13.6809   -2.6600   58.8767 C.ar    1  ZINC001272744746    0.1200
     19 F19       -14.8793   -3.1220   59.2958 F       1  ZINC001272744746   -0.1200
     20 C20       -12.6520   -2.4731   59.7880 C.ar    1  ZINC001272744746    0.0400
     21 O21       -12.8477   -2.7546   61.1046 O.3     1  ZINC001272744746   -0.4700
     22 C22       -11.4194   -1.9978   59.3525 C.ar    1  ZINC001272744746    0.1300
     23 O23       -10.4075   -1.8133   60.2420 O.3     1  ZINC001272744746   -0.3000
     24 C24        -9.1459   -1.4001   59.7130 C.3     1  ZINC001272744746    0.0200
     25 C25       -11.2229   -1.7174   58.0096 C.ar    1  ZINC001272744746   -0.1800
     26 H26        -6.1301    0.5355   51.4950 H       1  ZINC001272744746    0.1000
     27 H27        -6.7162    2.0393   50.5495 H       1  ZINC001272744746    0.1000
     28 H28        -8.5590    2.2672   52.0543 H       1  ZINC001272744746    0.1100
     29 H29        -7.4885   -0.4374   53.0872 H       1  ZINC001272744746    0.0900
     30 H30        -7.6279    0.9145   54.2367 H       1  ZINC001272744746    0.0800
     31 H31        -9.9885   -0.2993   55.4743 H       1  ZINC001272744746    0.0700
     32 H32        -9.9673    1.4506   55.1026 H       1  ZINC001272744746    0.0900
     33 H33       -11.8407   -1.5549   53.3436 H       1  ZINC001272744746    0.1100
     34 H34       -12.3643   -0.1793   52.3216 H       1  ZINC001272744746    0.1100
     35 H35       -11.5582    2.2165   53.1899 H       1  ZINC001272744746    0.0700
     36 H36       -13.2197    1.6878   53.5496 H       1  ZINC001272744746    0.0800
     37 H37       -11.1984    2.7918   55.5558 H       1  ZINC001272744746    0.0600
     38 H38       -12.6506    3.6280   54.9511 H       1  ZINC001272744746    0.0700
     39 H39       -13.0469    2.5893   57.1839 H       1  ZINC001272744746    0.0700
     40 H40       -14.0865    1.8721   55.9293 H       1  ZINC001272744746    0.0700
     41 H41       -11.4527    0.7072   56.9416 H       1  ZINC001272744746    0.0400
     42 H42       -13.0787    0.1138   57.3564 H       1  ZINC001272744746    0.0900
     43 H43       -12.6084   -2.2921   55.0387 H       1  ZINC001272744746    0.1000
     44 H44       -10.9788   -1.6792   55.4092 H       1  ZINC001272744746    0.0600
     45 H45       -14.2803   -2.5189   56.8281 H       1  ZINC001272744746    0.1400
     46 H46       -12.0971   -2.5287   61.6709 H       1  ZINC001272744746    0.3900
     47 H47        -9.2623   -0.4455   59.1998 H       1  ZINC001272744746    0.0600
     48 H48        -8.4291   -1.2900   60.5268 H       1  ZINC001272744746    0.1100
     49 H49        -8.7841   -2.1493   59.0090 H       1  ZINC001272744746    0.0600
     50 H50       -10.2666   -1.3483   57.6696 H       1  ZINC001272744746    0.1400
@<TRIPOS>BOND
     1     1     2    2
     2     1    26    1
     3     1    27    1
     4     2     3    1
     5     2    28    1
     6     3     4    1
     7     3    29    1
     8     3    30    1
     9     4     8   am
    10     4     5    1
    11     5     6    1
    12     5    31    1
    13     5    32    1
    14     6    14    1
    15     6     7    1
    16     6    10    1
    17     7     8    1
    18     7    33    1
    19     7    34    1
    20     8     9    2
    21    10    11    1
    22    10    35    1
    23    10    36    1
    24    11    12    1
    25    11    37    1
    26    11    38    1
    27    12    13    1
    28    12    39    1
    29    12    40    1
    30    13    14    1
    31    13    41    1
    32    13    42    1
    33    14    15    1
    34    15    16    1
    35    15    43    1
    36    15    44    1
    37    16    25   ar
    38    16    17   ar
    39    17    18   ar
    40    17    45    1
    41    18    19    1
    42    18    20   ar
    43    20    21    1
    44    20    22   ar
    45    21    46    1
    46    22    23    1
    47    22    25   ar
    48    23    24    1
    49    24    47    1
    50    24    48    1
    51    24    49    1
    52    25    50    1
@<TRIPOS>SUBSTRUCTURE
     1 ZINC001272744746        1 TEMP              0 ****  ****    0 ROOT


##########                                Name:    ZINC000581017854
##########                DOCK_Rotatable_Bonds:                   6
##########                         Heavy_Atoms:                  24
##########                    Molecular_Weight:             330.334
##########                DOCK_Rotatable_Bonds:                   6
##########                       Formal_Charge:           0.0099998
##########                     HBond_Acceptors:                   6
##########                        HBond_Donors:                   2
##########                         Heavy_Atoms:                  24
##########                          Grid_Score:          -26.147367
##########                     Grid_vdw_energy:          -24.131283
##########                      Grid_es_energy:           -2.016085
##########           Internal_energy_repulsive:            4.788395

@<TRIPOS>MOLECULE
ZINC000581017854
 40 42 1 0 0
SMALL
USER_CHARGES


@<TRIPOS>ATOM
      1 C1        -13.5934   -1.3367   57.3155 C.3     1  ZINC000581017854   -0.1600
      2 C2        -12.2816   -2.1242   57.3140 C.3     1  ZINC000581017854    0.1500
      3 H3        -12.4786   -3.1590   57.5943 H       1  ZINC000581017854    0.1100
      4 C4        -11.6640   -2.0837   55.9147 C.3     1  ZINC000581017854    0.0500
      5 O5        -11.1151   -0.7865   55.6737 O.3     1  ZINC000581017854   -0.3100
      6 C6        -11.1415   -0.3337   54.3926 C.ar    1  ZINC000581017854    0.1600
      7 C7        -12.3556   -0.1223   53.7557 C.ar    1  ZINC000581017854   -0.2200
      8 C8        -12.3813    0.3381   52.4531 C.ar    1  ZINC000581017854   -0.0500
      9 C9        -11.1985    0.5881   51.7833 C.ar    1  ZINC000581017854   -0.1900
     10 C10        -9.9844    0.3778   52.4160 C.ar    1  ZINC000581017854    0.1400
     11 F11        -8.8293    0.6228   51.7596 F       1  ZINC000581017854   -0.1300
     12 C12        -9.9546   -0.0768   53.7223 C.ar    1  ZINC000581017854   -0.1900
     13 N13       -11.3520   -1.5263   58.2755 N.am    1  ZINC000581017854   -0.7300
     14 C14       -10.3614   -2.2698   58.8068 C.2     1  ZINC000581017854    0.5900
     15 O15       -10.2399   -3.4379   58.4890 O.2     1  ZINC000581017854   -0.5400
     16 C16        -9.4281   -1.6697   59.7698 C.2     1  ZINC000581017854   -0.2200
     17 C17        -8.0770   -1.8467   59.8155 C.2     1  ZINC000581017854    0.1100
     18 N18        -7.5555   -1.1320   60.8421 N.pl3   1  ZINC000581017854   -0.5700
     19 C19        -8.5529   -0.4546   61.5128 C.ar    1  ZINC000581017854    0.1100
     20 C20        -8.5512    0.3976   62.6118 C.ar    1  ZINC000581017854   -0.1600
     21 C21        -9.7375    0.9366   63.0666 C.ar    1  ZINC000581017854    0.1200
     22 F22        -9.7311    1.7644   64.1342 F       1  ZINC000581017854   -0.1400
     23 C23       -10.9381    0.6358   62.4357 C.ar    1  ZINC000581017854   -0.1700
     24 C24       -10.9580   -0.2066   61.3458 C.ar    1  ZINC000581017854   -0.0300
     25 C25        -9.7673   -0.7522   60.8735 C.ar    1  ZINC000581017854   -0.0700
     26 H26       -14.2850   -1.7816   56.6000 H       1  ZINC000581017854    0.0700
     27 H27       -14.0333   -1.3656   58.3123 H       1  ZINC000581017854    0.0700
     28 H28       -13.3963   -0.3020   57.0351 H       1  ZINC000581017854    0.0700
     29 H29       -10.8739   -2.8313   55.8445 H       1  ZINC000581017854    0.0700
     30 H30       -12.4329   -2.2966   55.1719 H       1  ZINC000581017854    0.0800
     31 H31       -13.2807   -0.3179   54.2777 H       1  ZINC000581017854    0.1400
     32 H32       -13.3268    0.5025   51.9577 H       1  ZINC000581017854    0.1400
     33 H33       -11.2210    0.9477   50.7651 H       1  ZINC000581017854    0.1400
     34 H34        -9.0083   -0.2407   54.2163 H       1  ZINC000581017854    0.1400
     35 H35       -11.4495   -0.5954   58.5298 H       1  ZINC000581017854    0.4000
     36 H36        -7.5079   -2.4636   59.1359 H       1  ZINC000581017854    0.1800
     37 H37        -6.6138   -1.1014   61.0731 H       1  ZINC000581017854    0.4200
     38 H38        -7.6229    0.6371   63.1089 H       1  ZINC000581017854    0.1400
     39 H39       -11.8597    1.0638   62.8016 H       1  ZINC000581017854    0.1400
     40 H40       -11.8927   -0.4393   60.8572 H       1  ZINC000581017854    0.1500
@<TRIPOS>BOND
     1     1     2    1
     2     1    26    1
     3     1    27    1
     4     1    28    1
     5     2     3    1
     6     2     4    1
     7     2    13    1
     8     4     5    1
     9     4    29    1
    10     4    30    1
    11     5     6    1
    12     6    12   ar
    13     6     7   ar
    14     7     8   ar
    15     7    31    1
    16     8     9   ar
    17     8    32    1
    18     9    10   ar
    19     9    33    1
    20    10    11    1
    21    10    12   ar
    22    12    34    1
    23    13    14   am
    24    13    35    1
    25    14    15    2
    26    14    16    1
    27    16    25    1
    28    16    17    2
    29    17    18    1
    30    17    36    1
    31    18    19    1
    32    18    37    1
    33    19    25   ar
    34    19    20   ar
    35    20    21   ar
    36    20    38    1
    37    21    22    1
    38    21    23   ar
    39    23    24   ar
    40    23    39    1
    41    24    25   ar
    42    24    40    1
@<TRIPOS>SUBSTRUCTURE
     1 ZINC000581017854        1 TEMP              0 ****  ****    0 ROOT


##########                                Name:    ZINC000486710336
##########                DOCK_Rotatable_Bonds:                   6
##########                         Heavy_Atoms:                  31
##########                    Molecular_Weight:             420.555
##########                DOCK_Rotatable_Bonds:                   6
##########                       Formal_Charge:         1.49012e-07
##########                     HBond_Acceptors:                   6
##########                        HBond_Donors:                   1
##########                         Heavy_Atoms:                  31
##########                          Grid_Score:          -26.138447
##########                     Grid_vdw_energy:          -25.636065
##########                      Grid_es_energy:           -0.502382
##########           Internal_energy_repulsive:           48.848076

@<TRIPOS>MOLECULE
ZINC000486710336
 63 67 1 0 0
SMALL
USER_CHARGES


@<TRIPOS>ATOM
      1 C1         -9.3922    0.9422   55.2490 C.3     1  ZINC000486710336    0.1000
      2 N2         -8.3283    1.7989   55.7783 N.pl3   1  ZINC000486710336   -0.3900
      3 N3         -7.2682    2.3467   55.0447 N.2     1  ZINC000486710336   -0.2800
      4 C4         -6.5249    3.0537   55.8571 C.2     1  ZINC000486710336    0.1000
      5 C5         -5.2805    3.8136   55.4762 C.3     1  ZINC000486710336   -0.0100
      6 C6         -5.1789    5.1289   56.2877 C.3     1  ZINC000486710336   -0.1200
      7 C7         -3.6616    5.4382   56.2488 C.3     1  ZINC000486710336   -0.1200
      8 C8         -2.9903    4.0547   56.3710 C.3     1  ZINC000486710336   -0.1200
      9 C9         -4.0196    3.0217   55.8798 C.3     1  ZINC000486710336   -0.1100
     10 C10        -7.0799    2.9848   57.1372 C.2     1  ZINC000486710336   -0.2600
     11 C11        -8.1971    2.2086   57.0669 C.2     1  ZINC000486710336    0.3000
     12 N12        -9.0446    1.8877   58.1235 N.am    1  ZINC000486710336   -0.6200
     13 C13        -8.6361    1.0283   59.0779 C.2     1  ZINC000486710336    0.5100
     14 O14        -7.5296    0.5329   59.0155 O.2     1  ZINC000486710336   -0.4800
     15 C15        -9.5446    0.6855   60.2121 C.2     1  ZINC000486710336    0.5300
     16 O16        -9.5337    1.3574   61.2228 O.2     1  ZINC000486710336   -0.5100
     17 N17       -10.3766   -0.3702   60.1138 N.am    1  ZINC000486710336   -0.5800
     18 C18       -10.4958   -1.2750   58.9563 C.3     1  ZINC000486710336    0.1000
     19 C19       -11.5985   -2.3032   59.2932 C.3     1  ZINC000486710336   -0.0600
     20 H20       -11.1641   -3.2173   59.6981 H       1  ZINC000486710336    0.1000
     21 C21       -12.4371   -2.6051   58.0779 C.ar    1  ZINC000486710336   -0.0700
     22 C22       -11.9581   -2.3066   56.8161 C.ar    1  ZINC000486710336   -0.1100
     23 C23       -12.7273   -2.5836   55.7014 C.ar    1  ZINC000486710336   -0.1200
     24 C24       -13.9753   -3.1595   55.8486 C.ar    1  ZINC000486710336   -0.1200
     25 C25       -14.4540   -3.4588   57.1104 C.ar    1  ZINC000486710336   -0.1200
     26 C26       -13.6829   -3.1858   58.2248 C.ar    1  ZINC000486710336   -0.1100
     27 C27       -12.4374   -1.5614   60.3786 C.3     1  ZINC000486710336   -0.0800
     28 H28       -12.9982   -2.2436   61.0175 H       1  ZINC000486710336    0.1100
     29 C29       -13.3451   -0.5800   59.6342 C.3     1  ZINC000486710336   -0.1100
     30 C30       -13.8981    0.4744   60.5900 C.3     1  ZINC000486710336   -0.1200
     31 C31       -12.7263    1.2735   61.1702 C.3     1  ZINC000486710336   -0.1100
     32 C32       -11.8490    0.3225   61.9843 C.3     1  ZINC000486710336   -0.1400
     33 C33       -11.3176   -0.8245   61.1409 C.3     1  ZINC000486710336    0.1400
     34 H34       -10.7946   -1.5228   61.7944 H       1  ZINC000486710336    0.0800
     35 H35       -10.2231    1.5615   54.9111 H       1  ZINC000486710336    0.0800
     36 H36        -9.0077    0.3611   54.4109 H       1  ZINC000486710336    0.1000
     37 H37        -9.7376    0.2665   56.0315 H       1  ZINC000486710336    0.0800
     38 H38        -5.2741    4.0215   54.4063 H       1  ZINC000486710336    0.0900
     39 H39        -5.7477    5.9246   55.8065 H       1  ZINC000486710336    0.0700
     40 H40        -5.5160    4.9773   57.3131 H       1  ZINC000486710336    0.0800
     41 H41        -3.3926    5.9106   55.3040 H       1  ZINC000486710336    0.0700
     42 H42        -3.3803    6.0742   57.0881 H       1  ZINC000486710336    0.0700
     43 H43        -2.0967    4.0168   55.7478 H       1  ZINC000486710336    0.0600
     44 H44        -2.7295    3.8566   57.4107 H       1  ZINC000486710336    0.0600
     45 H45        -4.2583    2.3224   56.6811 H       1  ZINC000486710336    0.0700
     46 H46        -3.6256    2.4825   55.0183 H       1  ZINC000486710336    0.0700
     47 H47        -6.6939    3.4650   58.0242 H       1  ZINC000486710336    0.1700
     48 H48        -9.9292    2.2826   58.1728 H       1  ZINC000486710336    0.4200
     49 H49       -10.7764   -0.7075   58.0689 H       1  ZINC000486710336    0.0900
     50 H50        -9.5492   -1.7882   58.7874 H       1  ZINC000486710336    0.0800
     51 H51       -10.9830   -1.8567   56.7012 H       1  ZINC000486710336    0.1200
     52 H52       -12.3532   -2.3498   54.7156 H       1  ZINC000486710336    0.1200
     53 H53       -14.5765   -3.3753   54.9777 H       1  ZINC000486710336    0.1200
     54 H54       -15.4292   -3.9084   57.2254 H       1  ZINC000486710336    0.1200
     55 H55       -14.0569   -3.4196   59.2106 H       1  ZINC000486710336    0.1200
     56 H56       -12.7729   -0.0873   58.8482 H       1  ZINC000486710336    0.0700
     57 H57       -14.1737   -1.1274   59.1849 H       1  ZINC000486710336    0.0700
     58 H58       -14.5654    1.1448   60.0484 H       1  ZINC000486710336    0.0600
     59 H59       -14.4432   -0.0141   61.3977 H       1  ZINC000486710336    0.0600
     60 H60       -12.1419    1.7087   60.3597 H       1  ZINC000486710336    0.0500
     61 H61       -13.1061    2.0655   61.8157 H       1  ZINC000486710336    0.0600
     62 H62       -11.0075    0.8786   62.3975 H       1  ZINC000486710336    0.1000
     63 H63       -12.4369   -0.0937   62.8023 H       1  ZINC000486710336    0.0700
@<TRIPOS>BOND
     1     1     2    1
     2     1    35    1
     3     1    36    1
     4     1    37    1
     5     2    11    1
     6     2     3    1
     7     3     4    2
     8     4     5    1
     9     4    10    1
    10     5     9    1
    11     5     6    1
    12     5    38    1
    13     6     7    1
    14     6    39    1
    15     6    40    1
    16     7     8    1
    17     7    41    1
    18     7    42    1
    19     8     9    1
    20     8    43    1
    21     8    44    1
    22     9    45    1
    23     9    46    1
    24    10    11    2
    25    10    47    1
    26    11    12    1
    27    12    13   am
    28    12    48    1
    29    13    14    2
    30    13    15    1
    31    15    16    2
    32    15    17   am
    33    17    33    1
    34    17    18    1
    35    18    19    1
    36    18    49    1
    37    18    50    1
    38    19    20    1
    39    19    21    1
    40    19    27    1
    41    21    26   ar
    42    21    22   ar
    43    22    23   ar
    44    22    51    1
    45    23    24   ar
    46    23    52    1
    47    24    25   ar
    48    24    53    1
    49    25    26   ar
    50    25    54    1
    51    26    55    1
    52    27    28    1
    53    27    33    1
    54    27    29    1
    55    29    30    1
    56    29    56    1
    57    29    57    1
    58    30    31    1
    59    30    58    1
    60    30    59    1
    61    31    32    1
    62    31    60    1
    63    31    61    1
    64    32    33    1
    65    32    62    1
    66    32    63    1
    67    33    34    1
@<TRIPOS>SUBSTRUCTURE
     1 ZINC000486710336        1 TEMP              0 ****  ****    0 ROOT


##########                                Name:    ZINC000951315041
##########                DOCK_Rotatable_Bonds:                   5
##########                         Heavy_Atoms:                  25
##########                    Molecular_Weight:             340.382
##########                DOCK_Rotatable_Bonds:                   5
##########                       Formal_Charge:          0.00999974
##########                     HBond_Acceptors:                   7
##########                        HBond_Donors:                   1
##########                         Heavy_Atoms:                  25
##########                          Grid_Score:          -26.132328
##########                     Grid_vdw_energy:          -26.498489
##########                      Grid_es_energy:            0.366162
##########           Internal_energy_repulsive:            9.550973

@<TRIPOS>MOLECULE
ZINC000951315041
 45 47 1 0 0
SMALL
USER_CHARGES


@<TRIPOS>ATOM
      1 C1        -14.7061   -2.4071   60.5648 C.3     1  ZINC000951315041    0.0500
      2 N2        -14.5733   -2.5776   59.1159 N.am    1  ZINC000951315041   -0.4900
      3 C3        -13.4587   -2.1453   58.4975 C.2     1  ZINC000951315041    0.1700
      4 C4        -13.3125   -2.2952   57.1335 C.2     1  ZINC000951315041   -0.2400
      5 C5        -12.0895   -1.8200   56.4606 C.2     1  ZINC000951315041    0.5800
      6 O6        -11.1333   -2.5620   56.3421 O.2     1  ZINC000951315041   -0.5200
      7 N7        -12.0313   -0.5634   55.9769 N.am    1  ZINC000951315041   -0.6000
      8 C8        -13.1783    0.3447   56.1124 C.3     1  ZINC000951315041    0.1100
      9 C9        -13.5396    0.8927   54.7282 C.3     1  ZINC000951315041   -0.1300
     10 C10       -12.3008    1.5342   54.0988 C.3     1  ZINC000951315041   -0.1300
     11 C11       -11.2071    0.4771   53.9294 C.3     1  ZINC000951315041    0.1300
     12 H12       -11.5787   -0.3337   53.3030 H       1  ZINC000951315041    0.1000
     13 N13       -10.0335    1.0848   53.2974 N.am    1  ZINC000951315041   -0.7200
     14 C14        -9.1653    0.3171   52.6093 C.2     1  ZINC000951315041    0.5700
     15 O15        -9.3555   -0.8798   52.5145 O.2     1  ZINC000951315041   -0.5200
     16 C16        -7.9819    0.9305   51.9699 C.ar    1  ZINC000951315041   -0.1900
     17 C17        -7.8055    2.3192   51.9829 C.ar    1  ZINC000951315041   -0.0100
     18 C18        -6.6805    2.8432   51.3707 C.ar    1  ZINC000951315041   -0.1800
     19 C19        -5.7749    1.9866   50.7714 C.ar    1  ZINC000951315041    0.1300
     20 N20        -5.9674    0.6812   50.7743 N.ar    1  ZINC000951315041   -0.4900
     21 C21        -7.0187    0.1346   51.3484 C.ar    1  ZINC000951315041    0.1400
     22 C22       -10.8174   -0.0737   55.3096 C.3     1  ZINC000951315041    0.1000
     23 C23       -14.3459   -2.9092   56.3851 C.2     1  ZINC000951315041    0.0100
     24 C24       -15.4626   -3.3383   57.0316 C.2     1  ZINC000951315041   -0.2300
     25 C25       -15.5651   -3.1685   58.4251 C.2     1  ZINC000951315041    0.5100
     26 O26       -16.5645   -3.5522   59.0095 O.2     1  ZINC000951315041   -0.5400
     27 H27       -15.6619   -2.8159   60.8926 H       1  ZINC000951315041    0.1100
     28 H28       -13.8945   -2.9325   61.0683 H       1  ZINC000951315041    0.0800
     29 H29       -14.6607   -1.3465   60.8116 H       1  ZINC000951315041    0.0800
     30 H30       -12.6734   -1.6777   59.0728 H       1  ZINC000951315041    0.1700
     31 H31       -14.0286   -0.1994   56.5233 H       1  ZINC000951315041    0.1000
     32 H32       -12.9151    1.1695   56.7746 H       1  ZINC000951315041    0.0700
     33 H33       -13.8892    0.0779   54.0943 H       1  ZINC000951315041    0.0700
     34 H34       -14.3262    1.6407   54.8270 H       1  ZINC000951315041    0.0900
     35 H35       -12.5612    1.9467   53.1240 H       1  ZINC000951315041    0.0800
     36 H36       -11.9370    2.3328   54.7454 H       1  ZINC000951315041    0.0700
     37 H37        -9.8812    2.0397   53.3740 H       1  ZINC000951315041    0.4000
     38 H38        -8.5292    2.9650   52.4582 H       1  ZINC000951315041    0.1500
     39 H39        -6.5116    3.9099   51.3607 H       1  ZINC000951315041    0.1500
     40 H40        -4.8961    2.3929   50.2929 H       1  ZINC000951315041    0.1600
     41 H41        -7.1413   -0.9384   51.3301 H       1  ZINC000951315041    0.1600
     42 H42       -10.3616    0.7183   55.9037 H       1  ZINC000951315041    0.0700
     43 H43       -10.1114   -0.8953   55.1890 H       1  ZINC000951315041    0.0900
     44 H44       -14.2489   -3.0344   55.3168 H       1  ZINC000951315041    0.1400
     45 H45       -16.2633   -3.8090   56.4803 H       1  ZINC000951315041    0.1600
@<TRIPOS>BOND
     1     1     2    1
     2     1    27    1
     3     1    28    1
     4     1    29    1
     5     2    25   am
     6     2     3    1
     7     3     4    2
     8     3    30    1
     9     4     5    1
    10     4    23    1
    11     5     6    2
    12     5     7   am
    13     7    22    1
    14     7     8    1
    15     8     9    1
    16     8    31    1
    17     8    32    1
    18     9    10    1
    19     9    33    1
    20     9    34    1
    21    10    11    1
    22    10    35    1
    23    10    36    1
    24    11    12    1
    25    11    13    1
    26    11    22    1
    27    13    14   am
    28    13    37    1
    29    14    15    2
    30    14    16    1
    31    16    21   ar
    32    16    17   ar
    33    17    18   ar
    34    17    38    1
    35    18    19   ar
    36    18    39    1
    37    19    20   ar
    38    19    40    1
    39    20    21   ar
    40    21    41    1
    41    22    42    1
    42    22    43    1
    43    23    24    2
    44    23    44    1
    45    24    25    1
    46    24    45    1
    47    25    26    2
@<TRIPOS>SUBSTRUCTURE
     1 ZINC000951315041        1 TEMP              0 ****  ****    0 ROOT


##########                                Name:    ZINC000288921983
##########                DOCK_Rotatable_Bonds:                   6
##########                         Heavy_Atoms:                  26
##########                    Molecular_Weight:             356.428
##########                DOCK_Rotatable_Bonds:                   6
##########                       Formal_Charge:           0.0199997
##########                     HBond_Acceptors:                   8
##########                        HBond_Donors:                   1
##########                         Heavy_Atoms:                  26
##########                          Grid_Score:          -26.120577
##########                     Grid_vdw_energy:          -26.028568
##########                      Grid_es_energy:           -0.092009
##########           Internal_energy_repulsive:           60.087002

@<TRIPOS>MOLECULE
ZINC000288921983
 50 53 1 0 0
SMALL
USER_CHARGES


@<TRIPOS>ATOM
      1 C1         -8.6632   -0.0691   62.8006 C.3     1  ZINC000288921983   -0.1400
      2 C2         -8.8532    1.3806   62.3499 C.3     1  ZINC000288921983   -0.0500
      3 C3         -8.9310    1.4329   60.8458 C.ar    1  ZINC000288921983    0.3000
      4 N4         -9.8137    2.2303   60.2783 N.ar    1  ZINC000288921983   -0.5000
      5 C5         -9.9134    2.3050   58.9614 C.ar    1  ZINC000288921983    0.1300
      6 C6         -9.0691    1.5259   58.1749 C.ar    1  ZINC000288921983    0.0500
      7 N7         -9.1410    1.5750   56.7776 N.am    1  ZINC000288921983   -0.6700
      8 C8        -10.0055    0.7779   56.1189 C.2     1  ZINC000288921983    0.7100
      9 O9        -10.7228    0.0162   56.7382 O.2     1  ZINC000288921983   -0.5500
     10 N10       -10.0747    0.8252   54.7738 N.am    1  ZINC000288921983   -0.6200
     11 C11        -9.2143    1.7403   54.0116 C.3     1  ZINC000288921983    0.1100
     12 C12        -8.4565    0.9359   52.9507 C.3     1  ZINC000288921983   -0.1400
     13 C13        -9.4582    0.1563   52.0956 C.3     1  ZINC000288921983   -0.1200
     14 C14       -10.2342   -0.8219   52.9805 C.3     1  ZINC000288921983   -0.1300
     15 C15       -11.0078   -0.0418   54.0413 C.3     1  ZINC000288921983    0.2700
     16 H16       -11.7682    0.5736   53.5604 H       1  ZINC000288921983    0.1100
     17 C17       -11.6662   -1.0041   54.9962 C.2     1  ZINC000288921983    0.1700
     18 N18       -11.1785   -2.1414   55.4029 N.2     1  ZINC000288921983   -0.2500
     19 N19       -12.0096   -2.6974   56.2126 N.2     1  ZINC000288921983   -0.2700
     20 C20       -13.0559   -1.9334   56.3500 C.2     1  ZINC000288921983    0.1800
     21 C21       -14.2609   -2.2175   57.2093 C.3     1  ZINC000288921983   -0.0300
     22 C22       -15.5987   -1.9190   56.5124 C.3     1  ZINC000288921983   -0.1200
     23 C23       -15.5614   -3.3660   55.9934 C.3     1  ZINC000288921983   -0.1400
     24 C24       -14.6816   -3.6966   57.2107 C.3     1  ZINC000288921983   -0.1200
     25 O25       -12.8613   -0.8435   55.5888 O.3     1  ZINC000288921983   -0.2200
     26 C26        -8.1510    0.6973   58.8144 C.ar    1  ZINC000288921983    0.1600
     27 N27        -8.1107    0.6841   60.1363 N.ar    1  ZINC000288921983   -0.5000
     28 H28        -8.6069   -0.1069   63.8885 H       1  ZINC000288921983    0.0700
     29 H29        -9.5068   -0.6693   62.4594 H       1  ZINC000288921983    0.0600
     30 H30        -7.7406   -0.4639   62.3751 H       1  ZINC000288921983    0.0600
     31 H31        -9.7758    1.7755   62.7754 H       1  ZINC000288921983    0.0900
     32 H32        -8.0097    1.9807   62.6912 H       1  ZINC000288921983    0.0900
     33 H33       -10.6394    2.9602   58.5032 H       1  ZINC000288921983    0.1700
     34 H34        -8.5687    2.1827   56.2836 H       1  ZINC000288921983    0.4100
     35 H35        -9.8277    2.4990   53.5257 H       1  ZINC000288921983    0.0800
     36 H36        -8.5028    2.2186   54.6847 H       1  ZINC000288921983    0.0800
     37 H37        -7.8879    1.6156   52.3161 H       1  ZINC000288921983    0.0900
     38 H38        -7.7759    0.2391   53.4399 H       1  ZINC000288921983    0.0700
     39 H39       -10.1538    0.8519   51.6263 H       1  ZINC000288921983    0.0700
     40 H40        -8.9232   -0.3978   51.3242 H       1  ZINC000288921983    0.0800
     41 H41       -10.9309   -1.3932   52.3670 H       1  ZINC000288921983    0.0900
     42 H42        -9.5368   -1.5022   53.4693 H       1  ZINC000288921983    0.0900
     43 H43       -14.1806   -1.7855   58.2069 H       1  ZINC000288921983    0.1000
     44 H44       -16.4178   -1.7245   57.2049 H       1  ZINC000288921983    0.1000
     45 H45       -15.5228   -1.1702   55.7240 H       1  ZINC000288921983    0.0800
     46 H46       -16.5324   -3.8608   56.0093 H       1  ZINC000288921983    0.0700
     47 H47       -15.0454   -3.4745   55.0394 H       1  ZINC000288921983    0.1000
     48 H48       -13.8652   -4.3830   56.9858 H       1  ZINC000288921983    0.0700
     49 H49       -15.2499   -3.9882   58.0939 H       1  ZINC000288921983    0.1000
     50 H50        -7.4790    0.0775   58.2394 H       1  ZINC000288921983    0.1800
@<TRIPOS>BOND
     1     1     2    1
     2     1    28    1
     3     1    29    1
     4     1    30    1
     5     2     3    1
     6     2    31    1
     7     2    32    1
     8     3    27   ar
     9     3     4   ar
    10     4     5   ar
    11     5     6   ar
    12     5    33    1
    13     6     7    1
    14     6    26   ar
    15     7     8   am
    16     7    34    1
    17     8     9    2
    18     8    10   am
    19    10    15    1
    20    10    11    1
    21    11    12    1
    22    11    35    1
    23    11    36    1
    24    12    13    1
    25    12    37    1
    26    12    38    1
    27    13    14    1
    28    13    39    1
    29    13    40    1
    30    14    15    1
    31    14    41    1
    32    14    42    1
    33    15    16    1
    34    15    17    1
    35    17    25    1
    36    17    18    2
    37    18    19    1
    38    19    20    2
    39    20    21    1
    40    20    25    1
    41    21    24    1
    42    21    22    1
    43    21    43    1
    44    22    23    1
    45    22    44    1
    46    22    45    1
    47    23    24    1
    48    23    46    1
    49    23    47    1
    50    24    48    1
    51    24    49    1
    52    26    27   ar
    53    26    50    1
@<TRIPOS>SUBSTRUCTURE
     1 ZINC000288921983        1 TEMP              0 ****  ****    0 ROOT


##########                                Name:    ZINC001199210165
##########                DOCK_Rotatable_Bonds:                   5
##########                         Heavy_Atoms:                  23
##########                    Molecular_Weight:             375.225
##########                DOCK_Rotatable_Bonds:                   5
##########                       Formal_Charge:         -0.00999999
##########                     HBond_Acceptors:                   6
##########                        HBond_Donors:                   2
##########                         Heavy_Atoms:                  23
##########                          Grid_Score:          -26.109894
##########                     Grid_vdw_energy:          -24.414465
##########                      Grid_es_energy:           -1.695429
##########           Internal_energy_repulsive:           10.817320

@<TRIPOS>MOLECULE
ZINC001199210165
 38 40 1 0 0
SMALL
USER_CHARGES


@<TRIPOS>ATOM
      1 C1         -2.3516    4.9798   55.5901 C.3     1  ZINC001199210165   -0.1700
      2 C2         -2.3363    3.5057   55.9997 C.3     1  ZINC001199210165    0.0800
      3 C3         -2.0854    3.3973   57.5051 C.3     1  ZINC001199210165   -0.1500
      4 O4         -3.5960    2.9101   55.6827 O.3     1  ZINC001199210165   -0.3000
      5 C5         -4.0062    2.9867   54.3916 C.ar    1  ZINC001199210165    0.3300
      6 C6         -3.0992    2.7474   53.3681 C.ar    1  ZINC001199210165   -0.1300
      7 C7         -3.5363    2.8300   52.0446 C.ar    1  ZINC001199210165   -0.0600
      8 C8         -2.6055    2.5825   50.9192 C.2     1  ZINC001199210165    0.5700
      9 O9         -3.0234    2.5619   49.7783 O.2     1  ZINC001199210165   -0.4900
     10 N10        -1.2951    2.3800   51.1607 N.am    1  ZINC001199210165   -0.6600
     11 C11        -0.4165    2.1463   50.0986 C.ar    1  ZINC001199210165    0.2000
     12 C12         0.4061    1.0189   50.1156 C.ar    1  ZINC001199210165   -0.1500
     13 C13         1.2687    0.7746   49.0885 C.ar    1  ZINC001199210165   -0.0200
     14 C14         1.3326    1.6596   48.0063 C.ar    1  ZINC001199210165   -0.1700
     15 C15         2.1198    1.6995   46.7771 C.2     1  ZINC001199210165    0.0900
     16 Br16        3.4144    0.4296   46.2412 Br      1  ZINC001199210165    0.0600
     17 N17         1.7707    2.7661   46.1153 N.2     1  ZINC001199210165   -0.2100
     18 N18         0.7853    3.4668   46.8183 N.pl3   1  ZINC001199210165   -0.4900
     19 C19         0.5052    2.7996   47.9825 C.ar    1  ZINC001199210165    0.1500
     20 C20        -0.3732    3.0310   49.0366 C.ar    1  ZINC001199210165   -0.1700
     21 C21        -4.8778    3.1526   51.8099 C.ar    1  ZINC001199210165   -0.1900
     22 C22        -5.7133    3.3755   52.8854 C.ar    1  ZINC001199210165    0.1400
     23 N23        -5.2662    3.2833   54.1228 N.ar    1  ZINC001199210165   -0.5200
     24 H24        -3.1447    5.4984   56.1289 H       1  ZINC001199210165    0.0600
     25 H25        -1.3909    5.4341   55.8319 H       1  ZINC001199210165    0.0700
     26 H26        -2.5305    5.0571   54.5177 H       1  ZINC001199210165    0.0600
     27 H27        -1.5434    2.9871   55.4609 H       1  ZINC001199210165    0.0900
     28 H28        -2.8783    3.9159   58.0440 H       1  ZINC001199210165    0.0700
     29 H29        -2.0744    2.3471   57.7969 H       1  ZINC001199210165    0.0600
     30 H30        -1.1245    3.8516   57.7469 H       1  ZINC001199210165    0.0800
     31 H31        -2.0716    2.5014   53.5921 H       1  ZINC001199210165    0.1600
     32 H32        -0.9615    2.3965   52.0715 H       1  ZINC001199210165    0.4100
     33 H33         0.3592    0.3343   50.9496 H       1  ZINC001199210165    0.1500
     34 H34         1.9019   -0.1001   49.1101 H       1  ZINC001199210165    0.1400
     35 H35         0.3670    4.2925   46.5282 H       1  ZINC001199210165    0.4500
     36 H36        -1.0158    3.8989   49.0267 H       1  ZINC001199210165    0.1400
     37 H37        -5.2541    3.2264   50.8002 H       1  ZINC001199210165    0.1400
     38 H38        -6.7495    3.6251   52.7114 H       1  ZINC001199210165    0.1700
@<TRIPOS>BOND
     1     1     2    1
     2     1    24    1
     3     1    25    1
     4     1    26    1
     5     2     3    1
     6     2     4    1
     7     2    27    1
     8     3    28    1
     9     3    29    1
    10     3    30    1
    11     4     5    1
    12     5    23   ar
    13     5     6   ar
    14     6     7   ar
    15     6    31    1
    16     7     8    1
    17     7    21   ar
    18     8     9    2
    19     8    10   am
    20    10    11    1
    21    10    32    1
    22    11    20   ar
    23    11    12   ar
    24    12    13   ar
    25    12    33    1
    26    13    14   ar
    27    13    34    1
    28    14    19   ar
    29    14    15    1
    30    15    16    1
    31    15    17    2
    32    17    18    1
    33    18    19    1
    34    18    35    1
    35    19    20   ar
    36    20    36    1
    37    21    22   ar
    38    21    37    1
    39    22    23   ar
    40    22    38    1
@<TRIPOS>SUBSTRUCTURE
     1 ZINC001199210165        1 TEMP              0 ****  ****    0 ROOT


##########                                Name:    ZINC000680410869
##########                DOCK_Rotatable_Bonds:                   6
##########                         Heavy_Atoms:                  24
##########                    Molecular_Weight:             335.354
##########                DOCK_Rotatable_Bonds:                   6
##########                       Formal_Charge:        -1.04308e-07
##########                     HBond_Acceptors:                   7
##########                        HBond_Donors:                   0
##########                         Heavy_Atoms:                  24
##########                          Grid_Score:          -26.109577
##########                     Grid_vdw_energy:          -26.347404
##########                      Grid_es_energy:            0.237826
##########           Internal_energy_repulsive:            8.220614

@<TRIPOS>MOLECULE
ZINC000680410869
 43 45 1 0 0
SMALL
USER_CHARGES


@<TRIPOS>ATOM
      1 O1        -15.3688   -2.8231   55.1431 O.2     1  ZINC000680410869   -0.5200
      2 C2        -14.4235   -2.5146   55.8425 C.2     1  ZINC000680410869    0.6100
      3 C3        -13.3879   -1.5987   55.3225 C.2     1  ZINC000680410869    0.0100
      4 N4        -12.2928   -1.9404   54.6732 N.2     1  ZINC000680410869   -0.2500
      5 N5        -11.6165   -0.8920   54.3670 N.pl3   1  ZINC000680410869   -0.3500
      6 C6        -10.3441   -0.8983   53.6410 C.3     1  ZINC000680410869    0.5000
      7 F7        -10.5926   -0.9266   52.2645 F       1  ZINC000680410869   -0.1600
      8 F8         -9.6193    0.2549   53.9603 F       1  ZINC000680410869   -0.1700
      9 C9        -12.2475    0.2166   54.8098 C.2     1  ZINC000680410869    0.0100
     10 C10       -13.3856   -0.1870   55.4214 C.2     1  ZINC000680410869   -0.1700
     11 N11       -14.3233   -3.0039   57.0943 N.am    1  ZINC000680410869   -0.6000
     12 C12       -15.3425   -3.9178   57.6342 C.3     1  ZINC000680410869    0.0800
     13 C13       -15.7934   -3.3867   58.9997 C.3     1  ZINC000680410869    0.0500
     14 O14       -14.6444   -3.1613   59.8199 O.3     1  ZINC000680410869   -0.3700
     15 C15       -13.7471   -2.1716   59.3110 C.3     1  ZINC000680410869    0.0800
     16 H16       -14.2806   -1.2303   59.1778 H       1  ZINC000680410869    0.0600
     17 C17       -12.5949   -1.9708   60.2974 C.3     1  ZINC000680410869   -0.1000
     18 C18       -11.8995   -0.6396   60.0053 C.3     1  ZINC000680410869   -0.0800
     19 C19       -10.6176   -0.5589   60.7935 C.ar    1  ZINC000680410869   -0.0800
     20 C20       -10.6462   -0.1802   62.1226 C.ar    1  ZINC000680410869   -0.1200
     21 C21        -9.4703   -0.1061   62.8456 C.ar    1  ZINC000680410869   -0.1200
     22 C22        -8.2659   -0.4112   62.2396 C.ar    1  ZINC000680410869   -0.1300
     23 C23        -8.2375   -0.7908   60.9107 C.ar    1  ZINC000680410869   -0.1200
     24 C24        -9.4138   -0.8690   60.1889 C.ar    1  ZINC000680410869   -0.1200
     25 C25       -13.1884   -2.6448   57.9593 C.3     1  ZINC000680410869    0.0600
     26 H26        -9.7685   -1.7794   53.9244 H       1  ZINC000680410869    0.1700
     27 H27       -11.9094    1.2358   54.6939 H       1  ZINC000680410869    0.1900
     28 H28       -14.1320    0.4365   55.8910 H       1  ZINC000680410869    0.1700
     29 H29       -16.1951   -3.9585   56.9564 H       1  ZINC000680410869    0.1000
     30 H30       -14.9172   -4.9146   57.7502 H       1  ZINC000680410869    0.0800
     31 H31       -16.3343   -2.4500   58.8655 H       1  ZINC000680410869    0.0600
     32 H32       -16.4443   -4.1186   59.4781 H       1  ZINC000680410869    0.1100
     33 H33       -12.9853   -1.9612   61.3150 H       1  ZINC000680410869    0.0800
     34 H34       -11.8789   -2.7857   60.1906 H       1  ZINC000680410869    0.0800
     35 H35       -11.6762   -0.5722   58.9405 H       1  ZINC000680410869    0.0700
     36 H36       -12.5547    0.1831   60.2918 H       1  ZINC000680410869    0.0800
     37 H37       -11.5872    0.0582   62.5961 H       1  ZINC000680410869    0.1200
     38 H38        -9.4926    0.1904   63.8839 H       1  ZINC000680410869    0.1200
     39 H39        -7.3472   -0.3527   62.8043 H       1  ZINC000680410869    0.1200
     40 H40        -7.2965   -1.0289   60.4371 H       1  ZINC000680410869    0.1200
     41 H41        -9.3916   -1.1655   59.1506 H       1  ZINC000680410869    0.1200
     42 H42       -12.5465   -3.5126   58.1111 H       1  ZINC000680410869    0.0800
     43 H43       -12.6162   -1.8406   57.4968 H       1  ZINC000680410869    0.1300
@<TRIPOS>BOND
     1     1     2    2
     2     2     3    1
     3     2    11   am
     4     3    10    1
     5     3     4    2
     6     4     5    1
     7     5     6    1
     8     5     9    1
     9     6     7    1
    10     6     8    1
    11     6    26    1
    12     9    10    2
    13     9    27    1
    14    10    28    1
    15    11    25    1
    16    11    12    1
    17    12    13    1
    18    12    29    1
    19    12    30    1
    20    13    14    1
    21    13    31    1
    22    13    32    1
    23    14    15    1
    24    15    16    1
    25    15    17    1
    26    15    25    1
    27    17    18    1
    28    17    33    1
    29    17    34    1
    30    18    19    1
    31    18    35    1
    32    18    36    1
    33    19    24   ar
    34    19    20   ar
    35    20    21   ar
    36    20    37    1
    37    21    22   ar
    38    21    38    1
    39    22    23   ar
    40    22    39    1
    41    23    24   ar
    42    23    40    1
    43    24    41    1
    44    25    42    1
    45    25    43    1
@<TRIPOS>SUBSTRUCTURE
     1 ZINC000680410869        1 TEMP              0 ****  ****    0 ROOT


##########                                Name:    ZINC001282645012
##########                DOCK_Rotatable_Bonds:                   9
##########                         Heavy_Atoms:                  27
##########                    Molecular_Weight:             372.511
##########                DOCK_Rotatable_Bonds:                   9
##########                       Formal_Charge:          -0.0200004
##########                     HBond_Acceptors:                   6
##########                        HBond_Donors:                   1
##########                         Heavy_Atoms:                  27
##########                          Grid_Score:          -26.109446
##########                     Grid_vdw_energy:          -25.690331
##########                      Grid_es_energy:           -0.419114
##########           Internal_energy_repulsive:           32.950058

@<TRIPOS>MOLECULE
ZINC001282645012
 59 61 1 0 0
SMALL
USER_CHARGES


@<TRIPOS>ATOM
      1 C1         -6.4504    1.2636   51.2309 C.2     1  ZINC001282645012   -0.1900
      2 C2         -7.3417    1.2669   52.1910 C.2     1  ZINC001282645012   -0.1300
      3 C3         -7.8851    2.5731   52.7102 C.3     1  ZINC001282645012   -0.0500
      4 C4         -6.7415    3.4053   53.2937 C.3     1  ZINC001282645012   -0.1500
      5 C5         -8.5430    3.3435   51.5635 C.3     1  ZINC001282645012   -0.1400
      6 C6         -8.9069    2.3009   53.7838 C.2     1  ZINC001282645012    0.5500
      7 O7         -8.8183    2.8539   54.8595 O.2     1  ZINC001282645012   -0.5300
      8 N8         -9.9193    1.4428   53.5486 N.am    1  ZINC001282645012   -0.6300
      9 C9        -10.2602    0.6365   52.3275 C.3     1  ZINC001282645012    0.1200
     10 H10        -9.5901    0.7564   51.4763 H       1  ZINC001282645012    0.1300
     11 C11       -11.7376    1.0697   52.0864 C.3     1  ZINC001282645012   -0.1300
     12 C12       -12.2786    1.3160   53.5164 C.3     1  ZINC001282645012   -0.1300
     13 C13       -11.0506    0.9930   54.4290 C.3     1  ZINC001282645012    0.1200
     14 H14       -11.0783    1.4303   55.4271 H       1  ZINC001282645012    0.1200
     15 C15       -10.9049   -0.5578   54.3781 C.3     1  ZINC001282645012    0.1300
     16 H16       -10.1892   -0.9010   55.1252 H       1  ZINC001282645012    0.1000
     17 N17       -12.2043   -1.2049   54.5753 N.am    1  ZINC001282645012   -0.7100
     18 C18       -12.5346   -1.6989   55.7850 C.2     1  ZINC001282645012    0.5100
     19 O19       -11.7554   -1.6090   56.7100 O.2     1  ZINC001282645012   -0.5100
     20 C20       -13.8720   -2.3629   55.9882 C.3     1  ZINC001282645012    0.1200
     21 H21       -13.9141   -3.2817   55.4032 H       1  ZINC001282645012    0.1300
     22 C22       -14.0575   -2.6932   57.4706 C.3     1  ZINC001282645012   -0.1100
     23 C23       -15.4541   -3.2776   57.6920 C.3     1  ZINC001282645012   -0.1000
     24 C24       -15.5391   -4.6578   57.0373 C.3     1  ZINC001282645012   -0.1500
     25 C25       -15.7202   -3.4079   59.1930 C.3     1  ZINC001282645012   -0.1500
     26 N26       -14.9381   -1.4574   55.5524 N.pl3   1  ZINC001282645012   -0.4500
     27 C27       -15.0495   -0.1277   55.8575 C.2     1  ZINC001282645012   -0.0600
     28 C28       -16.1688    0.3177   55.2555 C.2     1  ZINC001282645012   -0.0200
     29 N29       -16.7256   -0.7120   54.6008 N.2     1  ZINC001282645012   -0.4900
     30 C30       -15.9912   -1.7773   54.7700 C.2     1  ZINC001282645012    0.1900
     31 C31       -10.3333   -0.7995   52.9287 C.3     1  ZINC001282645012   -0.1400
     32 H32        -6.1051    2.1970   50.8114 H       1  ZINC001282645012    0.1000
     33 H33        -6.0576    0.3277   50.8619 H       1  ZINC001282645012    0.1000
     34 H34        -7.6869    0.3335   52.6105 H       1  ZINC001282645012    0.1100
     35 H35        -6.0024    3.6023   52.5171 H       1  ZINC001282645012    0.0700
     36 H36        -7.1346    4.3502   53.6691 H       1  ZINC001282645012    0.0700
     37 H37        -6.2728    2.8566   54.1105 H       1  ZINC001282645012    0.0600
     38 H38        -9.3577    2.7506   51.1478 H       1  ZINC001282645012    0.0600
     39 H39        -8.9360    4.2883   51.9390 H       1  ZINC001282645012    0.0700
     40 H40        -7.8040    3.5403   50.7870 H       1  ZINC001282645012    0.0700
     41 H41       -11.7779    1.9862   51.4976 H       1  ZINC001282645012    0.0800
     42 H42       -12.2965    0.2724   51.5966 H       1  ZINC001282645012    0.0800
     43 H43       -12.5871    2.3545   53.6366 H       1  ZINC001282645012    0.0700
     44 H44       -13.1057    0.6408   53.7355 H       1  ZINC001282645012    0.0800
     45 H45       -12.8270   -1.2779   53.8351 H       1  ZINC001282645012    0.4000
     46 H46       -13.3062   -3.4208   57.7774 H       1  ZINC001282645012    0.0900
     47 H47       -13.9460   -1.7843   58.0620 H       1  ZINC001282645012    0.0800
     48 H48       -16.1988   -2.6179   57.2469 H       1  ZINC001282645012    0.0700
     49 H49       -14.7942   -5.3176   57.4824 H       1  ZINC001282645012    0.0600
     50 H50       -16.5339   -5.0741   57.1950 H       1  ZINC001282645012    0.0600
     51 H51       -15.3493   -4.5650   55.9680 H       1  ZINC001282645012    0.0500
     52 H52       -15.7445   -2.4163   59.6451 H       1  ZINC001282645012    0.0600
     53 H53       -16.6787   -3.9025   59.3505 H       1  ZINC001282645012    0.0600
     54 H54       -14.9272   -3.9975   59.6528 H       1  ZINC001282645012    0.0600
     55 H55       -14.3705    0.4527   56.4646 H       1  ZINC001282645012    0.1700
     56 H56       -16.5511    1.3270   55.2933 H       1  ZINC001282645012    0.1700
     57 H57       -16.1954   -2.7546   54.3581 H       1  ZINC001282645012    0.2000
     58 H58       -11.0222   -1.4058   52.3405 H       1  ZINC001282645012    0.0900
     59 H59        -9.3512   -1.2697   52.9767 H       1  ZINC001282645012    0.0900
@<TRIPOS>BOND
     1     1     2    2
     2     1    32    1
     3     1    33    1
     4     2     3    1
     5     2    34    1
     6     3     4    1
     7     3     5    1
     8     3     6    1
     9     4    35    1
    10     4    36    1
    11     4    37    1
    12     5    38    1
    13     5    39    1
    14     5    40    1
    15     6     7    2
    16     6     8   am
    17     8    13    1
    18     8     9    1
    19     9    10    1
    20     9    31    1
    21     9    11    1
    22    11    12    1
    23    11    41    1
    24    11    42    1
    25    12    13    1
    26    12    43    1
    27    12    44    1
    28    13    14    1
    29    13    15    1
    30    15    16    1
    31    15    17    1
    32    15    31    1
    33    17    18   am
    34    17    45    1
    35    18    19    2
    36    18    20    1
    37    20    21    1
    38    20    22    1
    39    20    26    1
    40    22    23    1
    41    22    46    1
    42    22    47    1
    43    23    24    1
    44    23    25    1
    45    23    48    1
    46    24    49    1
    47    24    50    1
    48    24    51    1
    49    25    52    1
    50    25    53    1
    51    25    54    1
    52    26    30    1
    53    26    27    1
    54    27    28    2
    55    27    55    1
    56    28    29    1
    57    28    56    1
    58    29    30    2
    59    30    57    1
    60    31    58    1
    61    31    59    1
@<TRIPOS>SUBSTRUCTURE
     1 ZINC001282645012        1 TEMP              0 ****  ****    0 ROOT


##########                                Name:    ZINC000119180466
##########                DOCK_Rotatable_Bonds:                  10
##########                         Heavy_Atoms:                  23
##########                    Molecular_Weight:             350.405
##########                DOCK_Rotatable_Bonds:                  10
##########                       Formal_Charge:           0.0299997
##########                     HBond_Acceptors:                   8
##########                        HBond_Donors:                   3
##########                         Heavy_Atoms:                  23
##########                          Grid_Score:          -26.108717
##########                     Grid_vdw_energy:          -25.424097
##########                      Grid_es_energy:           -0.684619
##########           Internal_energy_repulsive:           14.678481

@<TRIPOS>MOLECULE
ZINC000119180466
 44 44 1 0 0
SMALL
USER_CHARGES


@<TRIPOS>ATOM
      1 C1          1.3675    0.6655   50.1823 C.3     1  ZINC000119180466   -0.1300
      2 S2          0.9144    1.6505   48.7280 S.3     1  ZINC000119180466   -0.2200
      3 C3         -0.8921    1.7568   48.8538 C.3     1  ZINC000119180466   -0.0700
      4 H4         -1.3105    0.7534   48.9319 H       1  ZINC000119180466    0.1100
      5 C5         -1.4504    2.4466   47.6075 C.3     1  ZINC000119180466    0.0800
      6 O6         -1.4090    1.5409   46.5030 O.3     1  ZINC000119180466   -0.5600
      7 C7         -1.2700    2.5652   50.0967 C.3     1  ZINC000119180466    0.1900
      8 H8         -0.9100    2.0510   50.9878 H       1  ZINC000119180466    0.1000
      9 C9         -0.6315    3.9532   50.0159 C.3     1  ZINC000119180466   -0.1700
     10 N10        -2.7270    2.7011   50.1663 N.am    1  ZINC000119180466   -0.7200
     11 C11        -3.3332    2.8541   51.3603 C.2     1  ZINC000119180466    0.7100
     12 O12        -2.6707    2.8809   52.3795 O.2     1  ZINC000119180466   -0.6000
     13 N13        -4.6738    2.9776   51.4245 N.am    1  ZINC000119180466   -0.7400
     14 C14        -5.3326    3.1457   52.7222 C.3     1  ZINC000119180466    0.2000
     15 H15        -4.8521    2.5028   53.4596 H       1  ZINC000119180466    0.1000
     16 C16        -5.2186    4.6053   53.1666 C.3     1  ZINC000119180466   -0.1600
     17 C17        -6.7868    2.7700   52.5996 C.ar    1  ZINC000119180466   -0.0600
     18 C18        -7.3614    1.9194   53.5256 C.ar    1  ZINC000119180466   -0.1100
     19 C19        -8.6954    1.5747   53.4130 C.ar    1  ZINC000119180466   -0.0600
     20 C20        -9.4548    2.0810   52.3749 C.ar    1  ZINC000119180466   -0.1800
     21 C21       -10.9089    1.7048   52.2519 C.3     1  ZINC000119180466    0.5100
     22 F22       -11.5724    2.6569   51.4704 F       1  ZINC000119180466   -0.1800
     23 F23       -11.0160    0.4481   51.6465 F       1  ZINC000119180466   -0.1800
     24 F24       -11.4883    1.6603   53.5244 F       1  ZINC000119180466   -0.1800
     25 C25        -8.8807    2.9326   51.4497 C.ar    1  ZINC000119180466   -0.0600
     26 C26        -7.5476    3.2803   51.5644 C.ar    1  ZINC000119180466   -0.1100
     27 H27         0.8854   -0.3104   50.1247 H       1  ZINC000119180466    0.0800
     28 H28         2.4494    0.5352   50.2102 H       1  ZINC000119180466    0.1000
     29 H29         1.0400    1.1797   51.0859 H       1  ZINC000119180466    0.0800
     30 H30        -2.4814    2.7491   47.7909 H       1  ZINC000119180466    0.0500
     31 H31        -0.8489    3.3263   47.3789 H       1  ZINC000119180466    0.0600
     32 H32        -1.6506    1.9415   45.6567 H       1  ZINC000119180466    0.3800
     33 H33        -0.9915    4.4674   49.1247 H       1  ZINC000119180466    0.0700
     34 H34        -0.9008    4.5290   50.9013 H       1  ZINC000119180466    0.0700
     35 H35         0.4525    3.8521   49.9641 H       1  ZINC000119180466    0.0700
     36 H36        -3.2554    2.6810   49.3532 H       1  ZINC000119180466    0.4100
     37 H37        -5.2024    2.9550   50.6115 H       1  ZINC000119180466    0.4000
     38 H38        -5.7087    4.7304   54.1321 H       1  ZINC000119180466    0.0700
     39 H39        -4.1667    4.8770   53.2552 H       1  ZINC000119180466    0.0700
     40 H40        -5.6991    5.2482   52.4292 H       1  ZINC000119180466    0.0600
     41 H41        -6.7680    1.5239   54.3366 H       1  ZINC000119180466    0.1300
     42 H42        -9.1440    0.9096   54.1360 H       1  ZINC000119180466    0.1400
     43 H43        -9.4741    3.3283   50.6387 H       1  ZINC000119180466    0.1400
     44 H44        -7.0989    3.9456   50.8416 H       1  ZINC000119180466    0.1400
@<TRIPOS>BOND
     1     1     2    1
     2     1    27    1
     3     1    28    1
     4     1    29    1
     5     2     3    1
     6     3     4    1
     7     3     5    1
     8     3     7    1
     9     5     6    1
    10     5    30    1
    11     5    31    1
    12     6    32    1
    13     7     8    1
    14     7     9    1
    15     7    10    1
    16     9    33    1
    17     9    34    1
    18     9    35    1
    19    10    11   am
    20    10    36    1
    21    11    12    2
    22    11    13   am
    23    13    14    1
    24    13    37    1
    25    14    15    1
    26    14    16    1
    27    14    17    1
    28    16    38    1
    29    16    39    1
    30    16    40    1
    31    17    26   ar
    32    17    18   ar
    33    18    19   ar
    34    18    41    1
    35    19    20   ar
    36    19    42    1
    37    20    21    1
    38    20    25   ar
    39    21    22    1
    40    21    23    1
    41    21    24    1
    42    25    26   ar
    43    25    43    1
    44    26    44    1
@<TRIPOS>SUBSTRUCTURE
     1 ZINC000119180466        1 TEMP              0 ****  ****    0 ROOT


##########                                Name:    ZINC000898967786
##########                DOCK_Rotatable_Bonds:                   5
##########                         Heavy_Atoms:                  25
##########                    Molecular_Weight:             356.448
##########                DOCK_Rotatable_Bonds:                   5
##########                       Formal_Charge:        -2.38419e-07
##########                     HBond_Acceptors:                   7
##########                        HBond_Donors:                   1
##########                         Heavy_Atoms:                  25
##########                          Grid_Score:          -26.105574
##########                     Grid_vdw_energy:          -25.340652
##########                      Grid_es_energy:           -0.764921
##########           Internal_energy_repulsive:           11.374407

@<TRIPOS>MOLECULE
ZINC000898967786
 45 48 1 0 0
SMALL
USER_CHARGES


@<TRIPOS>ATOM
      1 C1          2.6063    5.2318   50.1609 C.3     1  ZINC000898967786   -0.0800
      2 C2          2.6456    3.7259   50.1197 C.2     1  ZINC000898967786    0.0900
      3 C3          1.6381    2.9220   49.7145 C.2     1  ZINC000898967786   -0.1000
      4 C4          0.2827    3.3637   49.2262 C.3     1  ZINC000898967786    0.2200
      5 N5         -0.7028    3.1885   50.2960 N.am    1  ZINC000898967786   -0.7400
      6 C6         -1.9793    2.8801   49.9925 C.2     1  ZINC000898967786    0.7100
      7 O7         -2.3129    2.7471   48.8309 O.2     1  ZINC000898967786   -0.5800
      8 N8         -2.8858    2.7189   50.9767 N.am    1  ZINC000898967786   -0.6300
      9 C9         -4.2850    2.3820   50.6700 C.3     1  ZINC000898967786    0.0900
     10 C10        -5.1939    3.3623   51.4202 C.3     1  ZINC000898967786    0.0500
     11 O11        -4.8325    3.3752   52.8033 O.3     1  ZINC000898967786   -0.3700
     12 C12        -3.5012    3.8306   53.0561 C.3     1  ZINC000898967786    0.1400
     13 H13        -3.3748    4.8321   52.6450 H       1  ZINC000898967786    0.0700
     14 C14        -3.2534    3.8615   54.5422 C.2     1  ZINC000898967786   -0.1100
     15 C15        -2.8613    2.7858   55.2267 C.2     1  ZINC000898967786   -0.1800
     16 S16        -2.6757    3.2029   56.9252 S.3     1  ZINC000898967786    0.1100
     17 C17        -3.1552    4.8638   56.6007 C.2     1  ZINC000898967786   -0.2100
     18 C18        -3.4099    5.0096   55.2995 C.2     1  ZINC000898967786   -0.1300
     19 C19        -2.5043    2.8687   52.3900 C.3     1  ZINC000898967786    0.0900
     20 N20         2.0790    1.6319   49.8302 N.pl3   1  ZINC000898967786   -0.3500
     21 C21         1.4918    0.4283   49.5668 C.2     1  ZINC000898967786    0.0600
     22 C22         2.1632   -0.7238   49.7738 C.2     1  ZINC000898967786   -0.1400
     23 C23         3.4790   -0.6990   50.2649 C.2     1  ZINC000898967786   -0.1000
     24 C24         4.0762    0.4937   50.5316 C.2     1  ZINC000898967786   -0.0800
     25 C25         3.3620    1.6883   50.3097 C.2     1  ZINC000898967786    0.2400
     26 N26         3.6837    2.9639   50.4720 N.2     1  ZINC000898967786   -0.4900
     27 H27         2.9508    5.6305   49.2066 H       1  ZINC000898967786    0.0800
     28 H28         1.5848    5.5637   50.3459 H       1  ZINC000898967786    0.0700
     29 H29         3.2553    5.5905   50.9598 H       1  ZINC000898967786    0.0800
     30 H30         0.3244    4.4144   48.9391 H       1  ZINC000898967786    0.1000
     31 H31        -0.0065    2.7628   48.3639 H       1  ZINC000898967786    0.0700
     32 H32        -0.4366    3.2946   51.2227 H       1  ZINC000898967786    0.4000
     33 H33        -4.4570    2.4694   49.5973 H       1  ZINC000898967786    0.1100
     34 H34        -4.4969    1.3632   50.9945 H       1  ZINC000898967786    0.0800
     35 H35        -5.0737    4.3622   51.0031 H       1  ZINC000898967786    0.0600
     36 H36        -6.2324    3.0470   51.3181 H       1  ZINC000898967786    0.1100
     37 H37        -2.6852    1.8082   54.8029 H       1  ZINC000898967786    0.1700
     38 H38        -3.2276    5.6468   57.3409 H       1  ZINC000898967786    0.1700
     39 H39        -3.7224    5.9502   54.8707 H       1  ZINC000898967786    0.1400
     40 H40        -2.5385    1.9006   52.8897 H       1  ZINC000898967786    0.0800
     41 H41        -1.4972    3.2806   52.4551 H       1  ZINC000898967786    0.0900
     42 H42         0.4803    0.3978   49.1895 H       1  ZINC000898967786    0.1600
     43 H43         1.6866   -1.6694   49.5611 H       1  ZINC000898967786    0.1500
     44 H44         4.0139   -1.6225   50.4305 H       1  ZINC000898967786    0.1500
     45 H45         5.0873    0.5250   50.9099 H       1  ZINC000898967786    0.1500
@<TRIPOS>BOND
     1     1     2    1
     2     1    27    1
     3     1    28    1
     4     1    29    1
     5     2    26    1
     6     2     3    2
     7     3     4    1
     8     3    20    1
     9     4     5    1
    10     4    30    1
    11     4    31    1
    12     5     6   am
    13     5    32    1
    14     6     7    2
    15     6     8   am
    16     8    19    1
    17     8     9    1
    18     9    10    1
    19     9    33    1
    20     9    34    1
    21    10    11    1
    22    10    35    1
    23    10    36    1
    24    11    12    1
    25    12    13    1
    26    12    14    1
    27    12    19    1
    28    14    18    1
    29    14    15    2
    30    15    16    1
    31    15    37    1
    32    16    17    1
    33    17    18    2
    34    17    38    1
    35    18    39    1
    36    19    40    1
    37    19    41    1
    38    20    25    1
    39    20    21    1
    40    21    22    2
    41    21    42    1
    42    22    23    1
    43    22    43    1
    44    23    24    2
    45    23    44    1
    46    24    25    1
    47    24    45    1
    48    25    26    2
@<TRIPOS>SUBSTRUCTURE
     1 ZINC000898967786        1 TEMP              0 ****  ****    0 ROOT


##########                                Name:    ZINC001211202056
##########                DOCK_Rotatable_Bonds:                   4
##########                         Heavy_Atoms:                  23
##########                    Molecular_Weight:             386.181
##########                DOCK_Rotatable_Bonds:                   4
##########                       Formal_Charge:           0.0199999
##########                     HBond_Acceptors:                  11
##########                        HBond_Donors:                   3
##########                         Heavy_Atoms:                  23
##########                          Grid_Score:          -26.104668
##########                     Grid_vdw_energy:          -23.999443
##########                      Grid_es_energy:           -2.105224
##########           Internal_energy_repulsive:            6.383054

@<TRIPOS>MOLECULE
ZINC001211202056
 31 32 1 0 0
SMALL
USER_CHARGES


@<TRIPOS>ATOM
      1 N1         -8.7694    2.9632   64.5545 N.pl3   1  ZINC001211202056   -0.8500
      2 C2         -8.6764    2.1859   63.3968 C.ar    1  ZINC001211202056    0.2900
      3 C3         -8.7484    2.7871   62.1474 C.ar    1  ZINC001211202056   -0.2000
      4 C4         -8.6563    2.0159   61.0048 C.ar    1  ZINC001211202056    0.0400
      5 C5         -8.4929    0.6467   61.1039 C.ar    1  ZINC001211202056   -0.7300
      6 S6         -8.3759   -0.3326   59.6438 S.o2    1  ZINC001211202056    2.6900
      7 O7         -7.3851    0.2788   58.8290 O.2     1  ZINC001211202056   -0.9400
      8 O8         -8.3031   -1.6853   60.0726 O.2     1  ZINC001211202056   -0.9300
      9 N9         -9.8108   -0.1758   58.8322 N.am    1  ZINC001211202056   -1.0500
     10 C10       -11.0060   -0.5635   59.4443 C.ar    1  ZINC001211202056    0.1600
     11 C11       -11.6234    0.2654   60.3766 C.ar    1  ZINC001211202056   -0.1200
     12 C12       -12.8074   -0.1624   60.9563 C.ar    1  ZINC001211202056   -0.0800
     13 C13       -13.3330   -1.3877   60.5935 C.ar    1  ZINC001211202056    0.0400
     14 C14       -14.6202   -1.8586   61.2201 C.3     1  ZINC001211202056    0.5300
     15 F15       -14.9199   -1.0581   62.3276 F       1  ZINC001211202056   -0.1700
     16 F16       -15.6558   -1.7661   60.2839 F       1  ZINC001211202056   -0.1600
     17 F17       -14.4799   -3.1887   61.6302 F       1  ZINC001211202056   -0.1700
     18 N18       -12.7245   -2.1510   59.7061 N.ar    1  ZINC001211202056   -0.4100
     19 C19       -11.5993   -1.7807   59.1269 C.ar    1  ZINC001211202056    0.1600
     20 Cl20      -10.8447   -2.8279   57.9659 Cl      1  ZINC001211202056    0.0000
     21 C21        -8.4206    0.0436   62.3467 C.ar    1  ZINC001211202056    0.0400
     22 C22        -8.5059    0.8095   63.4935 C.ar    1  ZINC001211202056   -0.1400
     23 Cl23       -8.4152    0.0523   65.0531 Cl      1  ZINC001211202056   -0.0500
     24 H24        -8.7149    2.5425   65.4268 H       1  ZINC001211202056    0.4100
     25 H25        -8.8843    3.9239   64.4857 H       1  ZINC001211202056    0.4100
     26 H26        -8.8768    3.8565   62.0688 H       1  ZINC001211202056    0.1400
     27 H27        -8.7123    2.4832   60.0328 H       1  ZINC001211202056    0.1500
     28 H28        -9.8218    0.1851   57.9319 H       1  ZINC001211202056    0.4400
     29 H29       -11.1902    1.2184   60.6421 H       1  ZINC001211202056    0.2000
     30 H30       -13.3135    0.4549   61.6837 H       1  ZINC001211202056    0.1700
     31 H31        -8.2929   -1.0262   62.4206 H       1  ZINC001211202056    0.1500
@<TRIPOS>BOND
     1     1     2    1
     2     1    24    1
     3     1    25    1
     4     2    22   ar
     5     2     3   ar
     6     3     4   ar
     7     3    26    1
     8     4     5   ar
     9     4    27    1
    10     5     6    1
    11     5    21   ar
    12     6     7    2
    13     6     8    2
    14     6     9   am
    15     9    10    1
    16     9    28    1
    17    10    19   ar
    18    10    11   ar
    19    11    12   ar
    20    11    29    1
    21    12    13   ar
    22    12    30    1
    23    13    14    1
    24    13    18   ar
    25    14    15    1
    26    14    16    1
    27    14    17    1
    28    18    19   ar
    29    19    20    1
    30    21    22   ar
    31    21    31    1
    32    22    23    1
@<TRIPOS>SUBSTRUCTURE
     1 ZINC001211202056        1 TEMP              0 ****  ****    0 ROOT


##########                                Name:    ZINC000611836474
##########                DOCK_Rotatable_Bonds:                   7
##########                         Heavy_Atoms:                  22
##########                    Molecular_Weight:             366.258
##########                DOCK_Rotatable_Bonds:                   7
##########                       Formal_Charge:          -0.0300004
##########                     HBond_Acceptors:                   5
##########                        HBond_Donors:                   1
##########                         Heavy_Atoms:                  22
##########                          Grid_Score:          -26.051050
##########                     Grid_vdw_energy:          -23.507236
##########                      Grid_es_energy:           -2.543814
##########           Internal_energy_repulsive:           10.228129

@<TRIPOS>MOLECULE
ZINC000611836474
 42 43 1 0 0
SMALL
USER_CHARGES


@<TRIPOS>ATOM
      1 C1         -1.3971    2.0104   56.5656 C.3     1  ZINC000611836474   -0.1500
      2 C2         -1.3574    3.1249   55.5181 C.3     1  ZINC000611836474   -0.1400
      3 C3         -2.7292    3.2477   54.8518 C.3     1  ZINC000611836474    0.1300
      4 N4         -3.6994    3.7600   55.8226 N.pl3   1  ZINC000611836474   -0.3900
      5 N5         -3.4377    4.6887   56.8380 N.2     1  ZINC000611836474   -0.2900
      6 C6         -4.5467    4.9003   57.4992 C.2     1  ZINC000611836474    0.0600
      7 C7         -5.5539    4.1159   56.9306 C.2     1  ZINC000611836474   -0.2800
      8 C8         -5.0077    3.4243   55.8932 C.2     1  ZINC000611836474    0.3000
      9 N9         -5.6742    2.5263   55.0597 N.am    1  ZINC000611836474   -0.6500
     10 C10        -6.9136    2.8129   54.6144 C.2     1  ZINC000611836474    0.5200
     11 O11        -7.4488    3.8524   54.9371 O.2     1  ZINC000611836474   -0.4700
     12 C12        -7.6344    1.8418   53.7152 C.3     1  ZINC000611836474    0.0700
     13 H13        -7.3493    0.8231   53.9779 H       1  ZINC000611836474    0.1100
     14 C14        -7.2559    2.1178   52.2588 C.3     1  ZINC000611836474   -0.1800
     15 O15        -9.0454    1.9987   53.8785 O.3     1  ZINC000611836474   -0.2700
     16 C16        -9.7100    0.9915   54.5039 C.ar    1  ZINC000611836474    0.1500
     17 C17        -9.6008    0.8349   55.8774 C.ar    1  ZINC000611836474   -0.2000
     18 C18       -10.2773   -0.1900   56.5111 C.ar    1  ZINC000611836474   -0.0600
     19 C19       -11.0623   -1.0595   55.7771 C.ar    1  ZINC000611836474   -0.1100
     20 C20       -11.7984   -2.1765   56.4710 C.3     1  ZINC000611836474   -0.1100
     21 C21       -11.1737   -0.9059   54.4074 C.ar    1  ZINC000611836474   -0.0500
     22 C22       -10.5039    0.1209   53.7694 C.ar    1  ZINC000611836474   -0.1200
     23 Br23      -10.6563    0.3308   51.8964 Br      1  ZINC000611836474   -0.0300
     24 H24        -0.4198    1.9228   57.0402 H       1  ZINC000611836474    0.0600
     25 H25        -2.1475    2.2472   57.3199 H       1  ZINC000611836474    0.0600
     26 H26        -1.6524    1.0670   56.0828 H       1  ZINC000611836474    0.0600
     27 H27        -1.1021    4.0682   56.0008 H       1  ZINC000611836474    0.0800
     28 H28        -0.6070    2.8880   54.7638 H       1  ZINC000611836474    0.0600
     29 H29        -2.6630    3.9339   54.0075 H       1  ZINC000611836474    0.0800
     30 H30        -3.0509    2.2677   54.4991 H       1  ZINC000611836474    0.1000
     31 H31        -4.6637    5.5668   58.3409 H       1  ZINC000611836474    0.1900
     32 H32        -6.5831    4.0694   57.2543 H       1  ZINC000611836474    0.1700
     33 H33        -5.2457    1.6956   54.8005 H       1  ZINC000611836474    0.4100
     34 H34        -6.1796    1.9981   52.1342 H       1  ZINC000611836474    0.0800
     35 H35        -7.7773    1.4154   51.6085 H       1  ZINC000611836474    0.0800
     36 H36        -7.5410    3.1365   51.9960 H       1  ZINC000611836474    0.0800
     37 H37        -8.9870    1.5133   56.4516 H       1  ZINC000611836474    0.1400
     38 H38       -10.1923   -0.3121   57.5807 H       1  ZINC000611836474    0.1300
     39 H39       -12.7861   -1.8281   56.7732 H       1  ZINC000611836474    0.0700
     40 H40       -11.9036   -3.0206   55.7896 H       1  ZINC000611836474    0.0700
     41 H41       -11.2379   -2.4885   57.3523 H       1  ZINC000611836474    0.0700
     42 H42       -11.7876   -1.5865   53.8361 H       1  ZINC000611836474    0.1400
@<TRIPOS>BOND
     1     1     2    1
     2     1    24    1
     3     1    25    1
     4     1    26    1
     5     2     3    1
     6     2    27    1
     7     2    28    1
     8     3     4    1
     9     3    29    1
    10     3    30    1
    11     4     8    1
    12     4     5    1
    13     5     6    2
    14     6     7    1
    15     6    31    1
    16     7     8    2
    17     7    32    1
    18     8     9    1
    19     9    10   am
    20     9    33    1
    21    10    11    2
    22    10    12    1
    23    12    13    1
    24    12    14    1
    25    12    15    1
    26    14    34    1
    27    14    35    1
    28    14    36    1
    29    15    16    1
    30    16    22   ar
    31    16    17   ar
    32    17    18   ar
    33    17    37    1
    34    18    19   ar
    35    18    38    1
    36    19    20    1
    37    19    21   ar
    38    20    39    1
    39    20    40    1
    40    20    41    1
    41    21    22   ar
    42    21    42    1
    43    22    23    1
@<TRIPOS>SUBSTRUCTURE
     1 ZINC000611836474        1 TEMP              0 ****  ****    0 ROOT


##########                                Name:    ZINC000966038509
##########                DOCK_Rotatable_Bonds:                   5
##########                         Heavy_Atoms:                  25
##########                    Molecular_Weight:             346.445
##########                DOCK_Rotatable_Bonds:                   5
##########                       Formal_Charge:           0.0299998
##########                     HBond_Acceptors:                   5
##########                        HBond_Donors:                   1
##########                         Heavy_Atoms:                  25
##########                          Grid_Score:          -26.048565
##########                     Grid_vdw_energy:          -25.908640
##########                      Grid_es_energy:           -0.139926
##########           Internal_energy_repulsive:           17.597649

@<TRIPOS>MOLECULE
ZINC000966038509
 52 54 1 0 0
SMALL
USER_CHARGES


@<TRIPOS>ATOM
      1 C1        -12.9584   -2.3003   60.9842 C.3     1  ZINC000966038509   -0.1200
      2 C2        -13.1449   -2.3520   59.4896 C.ar    1  ZINC000966038509   -0.0100
      3 C3        -14.3983   -2.5646   58.9573 C.ar    1  ZINC000966038509   -0.1600
      4 C4        -14.5712   -2.6129   57.5823 C.ar    1  ZINC000966038509    0.1300
      5 F5        -15.8020   -2.8220   57.0657 F       1  ZINC000966038509   -0.1300
      6 C6        -13.4858   -2.4469   56.7358 C.ar    1  ZINC000966038509   -0.1600
      7 C7        -12.2279   -2.2338   57.2576 C.ar    1  ZINC000966038509   -0.0100
      8 C8        -11.0490   -2.0541   56.3362 C.3     1  ZINC000966038509   -0.1200
      9 C9        -12.0490   -2.1789   58.6415 C.ar    1  ZINC000966038509   -0.1500
     10 C10       -10.7033   -1.9508   59.2065 C.2     1  ZINC000966038509    0.5700
     11 O11        -9.8839   -2.8489   59.2069 O.2     1  ZINC000966038509   -0.5200
     12 N12       -10.3838   -0.7469   59.7215 N.am    1  ZINC000966038509   -0.7100
     13 C13        -9.0486   -0.5202   60.2802 C.3     1  ZINC000966038509    0.1300
     14 H14        -8.6320   -1.4452   60.6788 H       1  ZINC000966038509    0.1200
     15 C15        -8.1034    0.1045   59.2237 C.3     1  ZINC000966038509    0.0900
     16 N16        -8.4286    1.5425   59.2298 N.am    1  ZINC000966038509   -0.6200
     17 C17        -8.2220    2.3988   58.2098 C.2     1  ZINC000966038509    0.5400
     18 O18        -8.5301    3.5660   58.3260 O.2     1  ZINC000966038509   -0.5300
     19 C19        -7.6080    1.9059   56.9249 C.3     1  ZINC000966038509   -0.1100
     20 C20        -8.5704    2.1493   55.7358 C.3     1  ZINC000966038509   -0.1100
     21 C21        -7.6114    2.1765   54.5198 C.3     1  ZINC000966038509   -0.1200
     22 C22        -6.3569    2.9058   55.0437 C.3     1  ZINC000966038509   -0.1200
     23 C23        -6.3548    2.7337   56.5728 C.3     1  ZINC000966038509   -0.1100
     24 C24        -9.0162    1.8874   60.5326 C.3     1  ZINC000966038509    0.1000
     25 C25        -9.0807    0.5885   61.3652 C.3     1  ZINC000966038509   -0.1100
     26 H26        -8.2157    0.5091   62.0237 H       1  ZINC000966038509    0.1000
     27 C27       -10.3797    0.5260   62.1712 C.3     1  ZINC000966038509   -0.1400
     28 H28       -13.0840   -1.2745   61.3307 H       1  ZINC000966038509    0.0800
     29 H29       -13.6987   -2.9396   61.4651 H       1  ZINC000966038509    0.0800
     30 H30       -11.9574   -2.6494   61.2376 H       1  ZINC000966038509    0.0700
     31 H31       -15.2473   -2.6942   59.6121 H       1  ZINC000966038509    0.1400
     32 H32       -13.6260   -2.4851   55.6656 H       1  ZINC000966038509    0.1400
     33 H33       -10.9306   -0.9967   56.0997 H       1  ZINC000966038509    0.0800
     34 H34       -10.1464   -2.4202   56.8256 H       1  ZINC000966038509    0.0700
     35 H35       -11.2172   -2.6155   55.4172 H       1  ZINC000966038509    0.0800
     36 H36       -11.0379   -0.0308   59.7223 H       1  ZINC000966038509    0.4000
     37 H37        -7.0624   -0.0503   59.5073 H       1  ZINC000966038509    0.0800
     38 H38        -8.2974   -0.3240   58.2405 H       1  ZINC000966038509    0.0800
     39 H39        -7.3566    0.8482   57.0043 H       1  ZINC000966038509    0.0900
     40 H40        -9.2864    1.3325   55.6449 H       1  ZINC000966038509    0.0700
     41 H41        -9.0842    3.1044   55.8440 H       1  ZINC000966038509    0.0700
     42 H42        -7.3609    1.1623   54.2087 H       1  ZINC000966038509    0.0700
     43 H43        -8.0578    2.7306   53.6942 H       1  ZINC000966038509    0.0700
     44 H44        -5.4594    2.4587   54.6164 H       1  ZINC000966038509    0.0700
     45 H45        -6.4058    3.9641   54.7871 H       1  ZINC000966038509    0.0700
     46 H46        -6.4028    3.7085   57.0583 H       1  ZINC000966038509    0.0800
     47 H47        -5.4563    2.2031   56.8876 H       1  ZINC000966038509    0.0700
     48 H48        -8.3897    2.6216   61.0391 H       1  ZINC000966038509    0.0800
     49 H49       -10.0202    2.2878   60.3921 H       1  ZINC000966038509    0.0700
     50 H50       -11.2311    0.5767   61.4925 H       1  ZINC000966038509    0.0600
     51 H51       -10.4158   -0.4091   62.7301 H       1  ZINC000966038509    0.0700
     52 H52       -10.4175    1.3658   62.8650 H       1  ZINC000966038509    0.0700
@<TRIPOS>BOND
     1     1     2    1
     2     1    28    1
     3     1    29    1
     4     1    30    1
     5     2     9   ar
     6     2     3   ar
     7     3     4   ar
     8     3    31    1
     9     4     5    1
    10     4     6   ar
    11     6     7   ar
    12     6    32    1
    13     7     8    1
    14     7     9   ar
    15     8    33    1
    16     8    34    1
    17     8    35    1
    18     9    10    1
    19    10    11    2
    20    10    12   am
    21    12    13    1
    22    12    36    1
    23    13    14    1
    24    13    25    1
    25    13    15    1
    26    15    16    1
    27    15    37    1
    28    15    38    1
    29    16    17   am
    30    16    24    1
    31    17    18    2
    32    17    19    1
    33    19    23    1
    34    19    20    1
    35    19    39    1
    36    20    21    1
    37    20    40    1
    38    20    41    1
    39    21    22    1
    40    21    42    1
    41    21    43    1
    42    22    23    1
    43    22    44    1
    44    22    45    1
    45    23    46    1
    46    23    47    1
    47    24    25    1
    48    24    48    1
    49    24    49    1
    50    25    26    1
    51    25    27    1
    52    27    50    1
    53    27    51    1
    54    27    52    1
@<TRIPOS>SUBSTRUCTURE
     1 ZINC000966038509        1 TEMP              0 ****  ****    0 ROOT


##########                                Name:    ZINC000956479608
##########                DOCK_Rotatable_Bonds:                   5
##########                         Heavy_Atoms:                  25
##########                    Molecular_Weight:             345.442
##########                DOCK_Rotatable_Bonds:                   5
##########                       Formal_Charge:          -0.0100001
##########                     HBond_Acceptors:                   6
##########                        HBond_Donors:                   1
##########                         Heavy_Atoms:                  25
##########                          Grid_Score:          -26.002235
##########                     Grid_vdw_energy:          -26.659901
##########                      Grid_es_energy:            0.657665
##########           Internal_energy_repulsive:           31.683502

@<TRIPOS>MOLECULE
ZINC000956479608
 52 55 1 0 0
SMALL
USER_CHARGES


@<TRIPOS>ATOM
      1 C1          5.2416   -0.1266   50.0088 C.3     1  ZINC000956479608   -0.0900
      2 C2          3.9582   -0.9163   50.0244 C.2     1  ZINC000956479608   -0.1100
      3 C3          2.7032   -0.4937   49.6803 C.2     1  ZINC000956479608   -0.1000
      4 C4          2.3183    0.8500   49.2091 C.2     1  ZINC000956479608    0.6100
      5 O5          3.1760    1.6677   48.9371 O.2     1  ZINC000956479608   -0.5000
      6 N6          1.0158    1.1714   49.0800 N.am    1  ZINC000956479608   -0.7100
      7 C7          0.6335    2.5065   48.6136 C.3     1  ZINC000956479608    0.1800
      8 C8          1.2199    2.7474   47.2211 C.3     1  ZINC000956479608   -0.1700
      9 C9         -0.8923    2.6062   48.5481 C.3     1  ZINC000956479608   -0.1500
     10 C10        -1.4781    2.3306   49.9364 C.3     1  ZINC000956479608    0.1100
     11 N11        -0.8546    3.2449   50.9028 N.am    1  ZINC000956479608   -0.6100
     12 C12        -1.6132    4.0229   51.7002 C.2     1  ZINC000956479608    0.5500
     13 O13        -1.0864    4.7747   52.4929 O.2     1  ZINC000956479608   -0.5400
     14 C14        -3.1159    3.9587   51.6069 C.3     1  ZINC000956479608   -0.1900
     15 H15        -3.5535    4.4332   50.7285 H       1  ZINC000956479608    0.1200
     16 C16        -3.8025    2.7121   52.1494 C.3     1  ZINC000956479608   -0.1100
     17 H17        -3.1463    1.9572   52.5825 H       1  ZINC000956479608    0.1000
     18 C18        -5.0291    2.1559   51.4431 C.3     1  ZINC000956479608   -0.0900
     19 C19        -6.0493    3.2654   51.1878 C.3     1  ZINC000956479608   -0.1200
     20 C20        -6.3696    3.9511   52.5209 C.3     1  ZINC000956479608   -0.1200
     21 C21        -5.1855    4.8360   52.9105 C.3     1  ZINC000956479608   -0.0900
     22 C22        -3.9125    4.0215   52.9193 C.3     1  ZINC000956479608   -0.1100
     23 H23        -3.3283    4.0774   53.8377 H       1  ZINC000956479608    0.1100
     24 C24         0.6115    3.2947   50.9837 C.3     1  ZINC000956479608    0.1000
     25 C25         1.1740    3.5596   49.5837 C.3     1  ZINC000956479608   -0.1400
     26 O26         1.8906   -1.5524   49.8584 O.3     1  ZINC000956479608    0.1200
     27 N27         2.5015   -2.5175   50.2543 N.2     1  ZINC000956479608   -0.3400
     28 C28         3.7711   -2.2674   50.3920 C.2     1  ZINC000956479608   -0.0100
     29 H29         5.7163   -0.2240   49.0324 H       1  ZINC000956479608    0.0800
     30 H30         5.0245    0.9236   50.2040 H       1  ZINC000956479608    0.0900
     31 H31         5.9124   -0.5082   50.7786 H       1  ZINC000956479608    0.0800
     32 H32         0.3315    0.5187   49.2958 H       1  ZINC000956479608    0.4100
     33 H33         0.8355    1.9971   46.5302 H       1  ZINC000956479608    0.0800
     34 H34         0.9356    3.7407   46.8740 H       1  ZINC000956479608    0.0700
     35 H35         2.3067    2.6759   47.2673 H       1  ZINC000956479608    0.0600
     36 H36        -1.1779    3.6072   48.2248 H       1  ZINC000956479608    0.0800
     37 H37        -1.2748    1.8716   47.8394 H       1  ZINC000956479608    0.1000
     38 H38        -2.5551    2.4970   49.9182 H       1  ZINC000956479608    0.0900
     39 H39        -1.2705    1.2995   50.2225 H       1  ZINC000956479608    0.0600
     40 H40        -4.7285    1.7178   50.4914 H       1  ZINC000956479608    0.0700
     41 H41        -5.4839    1.3853   52.0655 H       1  ZINC000956479608    0.0700
     42 H42        -5.6316    3.9937   50.4928 H       1  ZINC000956479608    0.0600
     43 H43        -6.9595    2.8362   50.7689 H       1  ZINC000956479608    0.0700
     44 H44        -7.2643    4.5641   52.4115 H       1  ZINC000956479608    0.0700
     45 H45        -6.5317    3.1966   53.2908 H       1  ZINC000956479608    0.0700
     46 H46        -5.0872    5.6464   52.1882 H       1  ZINC000956479608    0.0700
     47 H47        -5.3593    5.2567   53.9009 H       1  ZINC000956479608    0.0700
     48 H48         0.9132    4.0975   51.6566 H       1  ZINC000956479608    0.0900
     49 H49         0.9896    2.3423   51.3553 H       1  ZINC000956479608    0.0700
     50 H50         2.2621    3.5036   49.6121 H       1  ZINC000956479608    0.0900
     51 H51         0.8688    4.5517   49.2507 H       1  ZINC000956479608    0.0900
     52 H52         4.5317   -2.9559   50.7291 H       1  ZINC000956479608    0.2000
@<TRIPOS>BOND
     1     1     2    1
     2     1    29    1
     3     1    30    1
     4     1    31    1
     5     2    28    1
     6     2     3    2
     7     3     4    1
     8     3    26    1
     9     4     5    2
    10     4     6   am
    11     6     7    1
    12     6    32    1
    13     7    25    1
    14     7     8    1
    15     7     9    1
    16     8    33    1
    17     8    34    1
    18     8    35    1
    19     9    10    1
    20     9    36    1
    21     9    37    1
    22    10    11    1
    23    10    38    1
    24    10    39    1
    25    11    12   am
    26    11    24    1
    27    12    13    2
    28    12    14    1
    29    14    15    1
    30    14    22    1
    31    14    16    1
    32    16    17    1
    33    16    22    1
    34    16    18    1
    35    18    19    1
    36    18    40    1
    37    18    41    1
    38    19    20    1
    39    19    42    1
    40    19    43    1
    41    20    21    1
    42    20    44    1
    43    20    45    1
    44    21    22    1
    45    21    46    1
    46    21    47    1
    47    22    23    1
    48    24    25    1
    49    24    48    1
    50    24    49    1
    51    25    50    1
    52    25    51    1
    53    26    27    1
    54    27    28    2
    55    28    52    1
@<TRIPOS>SUBSTRUCTURE
     1 ZINC000956479608        1 TEMP              0 ****  ****    0 ROOT


##########                                Name:    ZINC000863216249
##########                DOCK_Rotatable_Bonds:                   5
##########                         Heavy_Atoms:                  23
##########                    Molecular_Weight:             396.351
##########                DOCK_Rotatable_Bonds:                   5
##########                       Formal_Charge:         -0.00999944
##########                     HBond_Acceptors:                   5
##########                        HBond_Donors:                   1
##########                         Heavy_Atoms:                  23
##########                          Grid_Score:          -25.994497
##########                     Grid_vdw_energy:          -25.220531
##########                      Grid_es_energy:           -0.773966
##########           Internal_energy_repulsive:           21.380777

@<TRIPOS>MOLECULE
ZINC000863216249
 45 48 1 0 0
SMALL
USER_CHARGES


@<TRIPOS>ATOM
      1 S1         -7.5005    2.8205   57.0481 S.2     1  ZINC000863216249   -0.5900
      2 C2         -8.6185    1.5267   56.9659 C.2     1  ZINC000863216249    0.5600
      3 N3         -9.0674    0.9509   58.0988 N.am    1  ZINC000863216249   -0.6800
      4 C4         -8.5939    1.4283   59.4004 C.3     1  ZINC000863216249    0.1200
      5 C5         -9.4288    0.7899   60.5122 C.3     1  ZINC000863216249    0.0400
      6 N6         -8.8408    1.1201   61.8173 N.3     1  ZINC000863216249   -0.5300
      7 C7         -9.3633    0.2364   62.8695 C.3     1  ZINC000863216249    0.0000
      8 C8         -8.6817    0.5749   64.1979 C.3     1  ZINC000863216249    0.0600
      9 O9         -8.8929    1.9573   64.4977 O.3     1  ZINC000863216249   -0.3800
     10 C10        -8.3955    2.8465   63.4940 C.3     1  ZINC000863216249    0.0600
     11 C11        -9.0742    2.5309   62.1584 C.3     1  ZINC000863216249    0.0200
     12 N12        -9.0541    1.0875   55.7684 N.am    1  ZINC000863216249   -0.5100
     13 C13        -8.6395    1.6324   54.4708 C.3     1  ZINC000863216249    0.1200
     14 C14        -9.4040    0.8045   53.4332 C.3     1  ZINC000863216249   -0.1100
     15 C15        -9.9343    1.4283   52.1480 C.3     1  ZINC000863216249   -0.1500
     16 C16        -8.7784    0.4253   52.0965 C.3     1  ZINC000863216249   -0.1500
     17 C17       -10.2202   -0.1772   54.2337 C.ar    1  ZINC000863216249   -0.0700
     18 C18       -11.0986   -1.1687   53.8416 C.ar    1  ZINC000863216249   -0.0800
     19 C19       -11.7343   -1.9496   54.7887 C.ar    1  ZINC000863216249   -0.1000
     20 C20       -11.4890   -1.7365   56.1334 C.ar    1  ZINC000863216249   -0.0700
     21 Br21      -12.3569   -2.8038   57.4310 Br      1  ZINC000863216249   -0.0400
     22 C22       -10.6127   -0.7475   56.5303 C.ar    1  ZINC000863216249   -0.0900
     23 C23        -9.9632    0.0414   55.5801 C.ar    1  ZINC000863216249    0.1400
     24 H24        -9.7039    0.2204   58.0523 H       1  ZINC000863216249    0.4000
     25 H25        -7.5469    1.1540   59.5291 H       1  ZINC000863216249    0.0900
     26 H26        -8.6939    2.5126   59.4480 H       1  ZINC000863216249    0.1000
     27 H27       -10.4485    1.1722   60.4660 H       1  ZINC000863216249    0.0900
     28 H28        -9.4403   -0.2923   60.3823 H       1  ZINC000863216249    0.0400
     29 H29       -10.4394    0.3813   62.9653 H       1  ZINC000863216249    0.0500
     30 H30        -9.1570   -0.8016   62.6087 H       1  ZINC000863216249    0.1000
     31 H31        -9.1070   -0.0388   64.9920 H       1  ZINC000863216249    0.1000
     32 H32        -7.6124    0.3788   64.1187 H       1  ZINC000863216249    0.0600
     33 H33        -8.6137    3.8756   63.7790 H       1  ZINC000863216249    0.1000
     34 H34        -7.3179    2.7164   63.3943 H       1  ZINC000863216249    0.0600
     35 H35        -8.6568    3.1679   61.3787 H       1  ZINC000863216249    0.0900
     36 H36       -10.1457    2.7125   62.2428 H       1  ZINC000863216249    0.0500
     37 H37        -8.9161    2.6840   54.3953 H       1  ZINC000863216249    0.0900
     38 H38        -7.5647    1.5116   54.3349 H       1  ZINC000863216249    0.0900
     39 H39       -10.9079    1.0934   51.7901 H       1  ZINC000863216249    0.1100
     40 H40        -9.7000    2.4766   51.9630 H       1  ZINC000863216249    0.1100
     41 H41        -7.7838    0.8140   51.8778 H       1  ZINC000863216249    0.1100
     42 H42        -8.9917   -0.5692   51.7048 H       1  ZINC000863216249    0.1100
     43 H43       -11.2897   -1.3341   52.7916 H       1  ZINC000863216249    0.1400
     44 H44       -12.4209   -2.7239   54.4797 H       1  ZINC000863216249    0.1400
     45 H45       -10.4256   -0.5857   57.5817 H       1  ZINC000863216249    0.1900
@<TRIPOS>BOND
     1     1     2    2
     2     2     3   am
     3     2    12   am
     4     3     4    1
     5     3    24    1
     6     4     5    1
     7     4    25    1
     8     4    26    1
     9     5     6    1
    10     5    27    1
    11     5    28    1
    12     6    11    1
    13     6     7    1
    14     7     8    1
    15     7    29    1
    16     7    30    1
    17     8     9    1
    18     8    31    1
    19     8    32    1
    20     9    10    1
    21    10    11    1
    22    10    33    1
    23    10    34    1
    24    11    35    1
    25    11    36    1
    26    12    23    1
    27    12    13    1
    28    13    14    1
    29    13    37    1
    30    13    38    1
    31    14    16    1
    32    14    15    1
    33    14    17    1
    34    15    16    1
    35    15    39    1
    36    15    40    1
    37    16    41    1
    38    16    42    1
    39    17    23   ar
    40    17    18   ar
    41    18    19   ar
    42    18    43    1
    43    19    20   ar
    44    19    44    1
    45    20    21    1
    46    20    22   ar
    47    22    23   ar
    48    22    45    1
@<TRIPOS>SUBSTRUCTURE
     1 ZINC000863216249        1 TEMP              0 ****  ****    0 ROOT


##########                                Name:    ZINC000888733009
##########                DOCK_Rotatable_Bonds:                   6
##########                         Heavy_Atoms:                  25
##########                    Molecular_Weight:             360.434
##########                DOCK_Rotatable_Bonds:                   6
##########                       Formal_Charge:        -1.02073e-06
##########                     HBond_Acceptors:                   7
##########                        HBond_Donors:                   2
##########                         Heavy_Atoms:                  25
##########                          Grid_Score:          -25.976173
##########                     Grid_vdw_energy:          -24.883678
##########                      Grid_es_energy:           -1.092496
##########           Internal_energy_repulsive:            7.511125

@<TRIPOS>MOLECULE
ZINC000888733009
 45 48 1 0 0
SMALL
USER_CHARGES


@<TRIPOS>ATOM
      1 C1          2.1047    2.9244   46.3897 C.3     1  ZINC000888733009   -0.1500
      2 C2          0.6246    2.8728   46.7742 C.3     1  ZINC000888733009    0.0700
      3 H3          0.0250    3.4182   46.0454 H       1  ZINC000888733009    0.0700
      4 C4          0.4156    3.4599   48.1907 C.3     1  ZINC000888733009   -0.1300
      5 C5         -0.6751    2.5657   48.7954 C.3     1  ZINC000888733009   -0.1100
      6 C6         -0.3747    1.9933   50.1784 C.3     1  ZINC000888733009   -0.1300
      7 C7         -1.8681    2.2002   50.4915 C.3     1  ZINC000888733009    0.1200
      8 N8         -2.1184    2.7127   51.8410 N.am    1  ZINC000888733009   -0.7100
      9 C9         -3.3664    2.6912   52.3492 C.2     1  ZINC000888733009    0.5900
     10 O10        -4.2853    2.2446   51.6877 O.2     1  ZINC000888733009   -0.5600
     11 C11        -3.6171    3.2056   53.6988 C.2     1  ZINC000888733009   -0.2400
     12 C12        -4.8392    3.1475   54.3181 C.2     1  ZINC000888733009    0.0800
     13 N13        -5.9817    2.6017   53.7567 N.am    1  ZINC000888733009   -0.6100
     14 C14        -7.0333    3.3927   53.4652 C.2     1  ZINC000888733009    0.6000
     15 O15        -6.9784    4.5868   53.6938 O.2     1  ZINC000888733009   -0.4900
     16 C16        -8.2431    2.8148   52.8726 C.2     1  ZINC000888733009   -0.0900
     17 C17        -9.4100    3.4789   52.6219 C.2     1  ZINC000888733009   -0.1000
     18 C18       -10.2918    2.5453   52.0555 C.2     1  ZINC000888733009   -0.2300
     19 C19        -9.6332    1.3673   51.9861 C.2     1  ZINC000888733009    0.0100
     20 O20        -8.3973    1.5351   52.4740 O.3     1  ZINC000888733009   -0.1600
     21 S21        -4.7590    3.8387   55.8741 S.3     1  ZINC000888733009    0.3000
     22 C22        -3.0544    4.2179   55.7028 C.2     1  ZINC000888733009   -0.2800
     23 C23        -2.6005    3.8232   54.5218 C.2     1  ZINC000888733009   -0.0900
     24 C24        -1.8691    3.2937   49.4074 C.3     1  ZINC000888733009   -0.1400
     25 C25        -1.0049    1.5388   47.7039 C.3     1  ZINC000888733009    0.0700
     26 O26         0.1771    1.5019   46.8686 O.3     1  ZINC000888733009   -0.3700
     27 H27         2.2390    2.4833   45.4020 H       1  ZINC000888733009    0.0600
     28 H28         2.4398    3.9614   46.3732 H       1  ZINC000888733009    0.0700
     29 H29         2.6894    2.3650   47.1199 H       1  ZINC000888733009    0.0600
     30 H30         1.3342    3.3914   48.7735 H       1  ZINC000888733009    0.0800
     31 H31         0.0745    4.4934   48.1308 H       1  ZINC000888733009    0.0800
     32 H32        -0.0719    0.9463   50.1624 H       1  ZINC000888733009    0.0800
     33 H33         0.2886    2.6185   50.7761 H       1  ZINC000888733009    0.0900
     34 H34        -2.4888    1.3390   50.2445 H       1  ZINC000888733009    0.1200
     35 H35        -1.3858    3.0674   52.3686 H       1  ZINC000888733009    0.4000
     36 H36        -6.0250    1.6502   53.5733 H       1  ZINC000888733009    0.4400
     37 H37        -9.6147    4.5204   52.8211 H       1  ZINC000888733009    0.1700
     38 H38       -11.3062    2.7330   51.7355 H       1  ZINC000888733009    0.1600
     39 H39       -10.0357    0.4437   51.5970 H       1  ZINC000888733009    0.2200
     40 H40        -2.4553    4.7033   56.4589 H       1  ZINC000888733009    0.1700
     41 H41        -1.5772    3.9565   54.2031 H       1  ZINC000888733009    0.1500
     42 H42        -1.6284    4.2867   49.7870 H       1  ZINC000888733009    0.0900
     43 H43        -2.7580    3.2837   48.7765 H       1  ZINC000888733009    0.0800
     44 H44        -1.1897    0.5599   48.1460 H       1  ZINC000888733009    0.0900
     45 H45        -1.8684    1.8645   47.1239 H       1  ZINC000888733009    0.0700
@<TRIPOS>BOND
     1     1     2    1
     2     1    27    1
     3     1    28    1
     4     1    29    1
     5     2     3    1
     6     2    26    1
     7     2     4    1
     8     4     5    1
     9     4    30    1
    10     4    31    1
    11     5    24    1
    12     5     6    1
    13     5    25    1
    14     6     7    1
    15     6    32    1
    16     6    33    1
    17     7     8    1
    18     7    24    1
    19     7    34    1
    20     8     9   am
    21     8    35    1
    22     9    10    2
    23     9    11    1
    24    11    23    1
    25    11    12    2
    26    12    13    1
    27    12    21    1
    28    13    14   am
    29    13    36    1
    30    14    15    2
    31    14    16    1
    32    16    20    1
    33    16    17    2
    34    17    18    1
    35    17    37    1
    36    18    19    2
    37    18    38    1
    38    19    20    1
    39    19    39    1
    40    21    22    1
    41    22    23    2
    42    22    40    1
    43    23    41    1
    44    24    42    1
    45    24    43    1
    46    25    26    1
    47    25    44    1
    48    25    45    1
@<TRIPOS>SUBSTRUCTURE
     1 ZINC000888733009        1 TEMP              0 ****  ****    0 ROOT


##########                                Name:    ZINC000790735374
##########                DOCK_Rotatable_Bonds:                   5
##########                         Heavy_Atoms:                  25
##########                    Molecular_Weight:             353.445
##########                DOCK_Rotatable_Bonds:                   5
##########                       Formal_Charge:                   0
##########                     HBond_Acceptors:                   6
##########                        HBond_Donors:                   1
##########                         Heavy_Atoms:                  25
##########                          Grid_Score:          -25.967224
##########                     Grid_vdw_energy:          -25.677122
##########                      Grid_es_energy:           -0.290102
##########           Internal_energy_repulsive:           12.809386

@<TRIPOS>MOLECULE
ZINC000790735374
 44 47 1 0 0
SMALL
USER_CHARGES


@<TRIPOS>ATOM
      1 O1         -9.0836   -0.4169   52.4066 O.2     1  ZINC000790735374   -0.5100
      2 C2         -9.6099    0.6361   52.6982 C.2     1  ZINC000790735374    0.5000
      3 N3         -8.8934    1.7774   52.6728 N.am    1  ZINC000790735374   -0.7200
      4 C4         -7.4773    1.7451   52.2989 C.3     1  ZINC000790735374    0.1400
      5 C5         -6.7506    2.9230   52.9510 C.3     1  ZINC000790735374   -0.0300
      6 H6         -7.1271    3.8558   52.5313 H       1  ZINC000790735374    0.1100
      7 S7         -7.0581    2.9023   54.7379 S.3     1  ZINC000790735374   -0.2400
      8 C8         -5.7952    4.0790   55.3168 C.3     1  ZINC000790735374   -0.0800
      9 C9         -4.4300    3.4864   55.0007 C.3     1  ZINC000790735374   -0.0800
     10 C10        -4.2687    3.0830   53.5627 C.ar    1  ZINC000790735374   -0.0700
     11 C11        -2.9407    2.9804   53.1347 C.ar    1  ZINC000790735374   -0.1200
     12 C12        -2.6265    2.6057   51.8496 C.ar    1  ZINC000790735374   -0.1100
     13 C13        -3.6420    2.3199   50.9560 C.ar    1  ZINC000790735374   -0.1200
     14 C14        -4.9506    2.4246   51.3688 C.ar    1  ZINC000790735374   -0.1100
     15 C15        -5.2717    2.8121   52.6738 C.ar    1  ZINC000790735374   -0.0800
     16 C16       -11.0667    0.6694   53.0828 C.3     1  ZINC000790735374    0.0300
     17 H17       -11.7000    0.7410   52.1985 H       1  ZINC000790735374    0.1500
     18 C18       -11.4429   -0.5661   53.9349 C.3     1  ZINC000790735374   -0.1400
     19 C19       -11.2761   -0.0522   55.3524 C.2     1  ZINC000790735374    0.1200
     20 C20       -11.1930   -0.8834   56.5697 C.ar    1  ZINC000790735374   -0.1000
     21 C21       -11.0685   -0.2884   57.8309 C.ar    1  ZINC000790735374   -0.0400
     22 C22       -10.9951   -1.1123   58.9404 C.ar    1  ZINC000790735374   -0.1700
     23 C23       -11.0466   -2.4838   58.7698 C.ar    1  ZINC000790735374    0.1200
     24 N24       -11.1643   -3.0172   57.5688 N.ar    1  ZINC000790735374   -0.4800
     25 C25       -11.2433   -2.2760   56.4834 C.ar    1  ZINC000790735374    0.1400
     26 N26       -11.2191    1.2367   55.3112 N.2     1  ZINC000790735374   -0.2700
     27 O27       -11.3342    1.7510   53.9983 O.3     1  ZINC000790735374   -0.1600
     28 H28        -9.3153    2.6202   52.9022 H       1  ZINC000790735374    0.4100
     29 H29        -7.0328    0.8101   52.6398 H       1  ZINC000790735374    0.0800
     30 H30        -7.3860    1.8168   51.2151 H       1  ZINC000790735374    0.0900
     31 H31        -5.9131    5.0314   54.8000 H       1  ZINC000790735374    0.0900
     32 H32        -5.8936    4.2269   56.3923 H       1  ZINC000790735374    0.1100
     33 H33        -3.6649    4.2237   55.2441 H       1  ZINC000790735374    0.0900
     34 H34        -4.2769    2.6087   55.6285 H       1  ZINC000790735374    0.0900
     35 H35        -2.1439    3.2009   53.8297 H       1  ZINC000790735374    0.1200
     36 H36        -1.5941    2.5355   51.5404 H       1  ZINC000790735374    0.1300
     37 H37        -3.4108    2.0181   49.9451 H       1  ZINC000790735374    0.1300
     38 H38        -5.7447    2.2008   50.6719 H       1  ZINC000790735374    0.1300
     39 H39       -12.4751   -0.8638   53.7503 H       1  ZINC000790735374    0.1200
     40 H40       -10.7599   -1.3930   53.7403 H       1  ZINC000790735374    0.1100
     41 H41       -11.0302    0.7859   57.9352 H       1  ZINC000790735374    0.1500
     42 H42       -10.8982   -0.6887   59.9291 H       1  ZINC000790735374    0.1500
     43 H43       -10.9891   -3.1290   59.6341 H       1  ZINC000790735374    0.1600
     44 H44       -11.3394   -2.7494   55.5175 H       1  ZINC000790735374    0.1600
@<TRIPOS>BOND
     1     1     2    2
     2     2     3   am
     3     2    16    1
     4     3     4    1
     5     3    28    1
     6     4     5    1
     7     4    29    1
     8     4    30    1
     9     5     6    1
    10     5    15    1
    11     5     7    1
    12     7     8    1
    13     8     9    1
    14     8    31    1
    15     8    32    1
    16     9    10    1
    17     9    33    1
    18     9    34    1
    19    10    15   ar
    20    10    11   ar
    21    11    12   ar
    22    11    35    1
    23    12    13   ar
    24    12    36    1
    25    13    14   ar
    26    13    37    1
    27    14    15   ar
    28    14    38    1
    29    16    17    1
    30    16    27    1
    31    16    18    1
    32    18    19    1
    33    18    39    1
    34    18    40    1
    35    19    20    1
    36    19    26    2
    37    20    25   ar
    38    20    21   ar
    39    21    22   ar
    40    21    41    1
    41    22    23   ar
    42    22    42    1
    43    23    24   ar
    44    23    43    1
    45    24    25   ar
    46    25    44    1
    47    26    27    1
@<TRIPOS>SUBSTRUCTURE
     1 ZINC000790735374        1 TEMP              0 ****  ****    0 ROOT


##########                                Name:    ZINC000186316242
##########                DOCK_Rotatable_Bonds:                   7
##########                         Heavy_Atoms:                  28
##########                    Molecular_Weight:             392.525
##########                DOCK_Rotatable_Bonds:                   7
##########                       Formal_Charge:         -0.00999981
##########                     HBond_Acceptors:                   6
##########                        HBond_Donors:                   0
##########                         Heavy_Atoms:                  28
##########                          Grid_Score:          -25.925880
##########                     Grid_vdw_energy:          -26.429632
##########                      Grid_es_energy:            0.503752
##########           Internal_energy_repulsive:           73.442368

@<TRIPOS>MOLECULE
ZINC000186316242
 52 55 1 0 0
SMALL
USER_CHARGES


@<TRIPOS>ATOM
      1 C1         -9.3683    1.9130   52.6095 C.3     1  ZINC000186316242   -0.1500
      2 C2         -9.1670    0.5187   53.2064 C.3     1  ZINC000186316242    0.1000
      3 N3        -10.0368    0.3572   54.3741 N.am    1  ZINC000186316242   -0.5900
      4 C4         -9.6695    0.8717   55.5644 C.2     1  ZINC000186316242    0.5900
      5 O5        -10.3915    0.7376   56.5339 O.2     1  ZINC000186316242   -0.5000
      6 C6         -8.3931    1.5969   55.6912 C.2     1  ZINC000186316242    0.0100
      7 C7         -7.9062    2.0201   56.8918 C.2     1  ZINC000186316242   -0.2100
      8 S8         -6.4143    2.8166   56.6377 S.3     1  ZINC000186316242    0.2000
      9 C9         -6.5343    2.5298   54.9057 C.2     1  ZINC000186316242    0.0700
     10 C10        -5.5375    2.9558   53.8993 C.ar    1  ZINC000186316242    0.1900
     11 C11        -4.3917    3.6386   54.3062 C.ar    1  ZINC000186316242   -0.1500
     12 C12        -3.4680    4.0302   53.3526 C.ar    1  ZINC000186316242   -0.0700
     13 C13        -3.7197    3.7261   52.0224 C.ar    1  ZINC000186316242   -0.1600
     14 C14        -4.8772    3.0459   51.6886 C.ar    1  ZINC000186316242    0.1100
     15 N15        -5.7379    2.6800   52.6156 N.ar    1  ZINC000186316242   -0.4500
     16 N16        -7.6289    1.8824   54.6476 N.2     1  ZINC000186316242   -0.3900
     17 C17       -11.3059   -0.3639   54.2481 C.3     1  ZINC000186316242    0.1400
     18 H18       -11.4185   -0.7565   53.2376 H       1  ZINC000186316242    0.1000
     19 C19       -12.4892    0.5678   54.5966 C.3     1  ZINC000186316242   -0.1300
     20 C20       -13.4446   -0.3648   55.3829 C.3     1  ZINC000186316242    0.0400
     21 N21       -12.5168   -1.2133   56.1736 N.3     1  ZINC000186316242   -0.4900
     22 C22       -13.1767   -2.4518   56.6078 C.3     1  ZINC000186316242    0.0800
     23 C23       -13.8161   -2.2346   57.9550 C.ar    1  ZINC000186316242   -0.0700
     24 C24       -13.0456   -2.2827   59.1017 C.ar    1  ZINC000186316242   -0.1000
     25 C25       -13.6322   -2.0835   60.3375 C.ar    1  ZINC000186316242   -0.1200
     26 C26       -14.9892   -1.8356   60.4266 C.ar    1  ZINC000186316242   -0.1200
     27 C27       -15.7595   -1.7865   59.2798 C.ar    1  ZINC000186316242   -0.1200
     28 C28       -15.1723   -1.9815   58.0437 C.ar    1  ZINC000186316242   -0.1100
     29 C29       -11.3752   -1.5078   55.2768 C.3     1  ZINC000186316242    0.0400
     30 H30        -8.7212    2.0332   51.7406 H       1  ZINC000186316242    0.0700
     31 H31       -10.4087    2.0319   52.3069 H       1  ZINC000186316242    0.0500
     32 H32        -9.1185    2.6672   53.3557 H       1  ZINC000186316242    0.0400
     33 H33        -9.4169   -0.2355   52.4602 H       1  ZINC000186316242    0.1200
     34 H34        -8.1267    0.3997   53.5091 H       1  ZINC000186316242    0.0700
     35 H35        -8.3850    1.8757   57.8490 H       1  ZINC000186316242    0.1900
     36 H36        -4.2277    3.8592   55.3507 H       1  ZINC000186316242    0.1400
     37 H37        -2.5715    4.5607   53.6375 H       1  ZINC000186316242    0.1400
     38 H38        -3.0186    4.0183   51.2546 H       1  ZINC000186316242    0.1400
     39 H39        -5.0758    2.8083   50.6540 H       1  ZINC000186316242    0.1600
     40 H40       -12.1568    1.3959   55.2227 H       1  ZINC000186316242    0.0900
     41 H41       -12.9696    0.9368   53.6904 H       1  ZINC000186316242    0.0700
     42 H42       -14.0920    0.2144   56.0413 H       1  ZINC000186316242    0.0800
     43 H43       -14.0356   -0.9745   54.6995 H       1  ZINC000186316242    0.0400
     44 H44       -13.9419   -2.7292   55.8829 H       1  ZINC000186316242    0.0400
     45 H45       -12.4386   -3.2506   56.6806 H       1  ZINC000186316242    0.0800
     46 H46       -11.9854   -2.4765   59.0321 H       1  ZINC000186316242    0.1200
     47 H47       -13.0303   -2.1218   61.2333 H       1  ZINC000186316242    0.1200
     48 H48       -15.4477   -1.6806   61.3921 H       1  ZINC000186316242    0.1200
     49 H49       -16.8198   -1.5931   59.3494 H       1  ZINC000186316242    0.1200
     50 H50       -15.7741   -1.9431   57.1478 H       1  ZINC000186316242    0.1200
     51 H51       -11.5380   -2.4580   54.7683 H       1  ZINC000186316242    0.0500
     52 H52       -10.4506   -1.5454   55.8528 H       1  ZINC000186316242    0.0800
@<TRIPOS>BOND
     1     1     2    1
     2     1    30    1
     3     1    31    1
     4     1    32    1
     5     2     3    1
     6     2    33    1
     7     2    34    1
     8     3     4   am
     9     3    17    1
    10     4     5    2
    11     4     6    1
    12     6    16    1
    13     6     7    2
    14     7     8    1
    15     7    35    1
    16     8     9    1
    17     9    10    1
    18     9    16    2
    19    10    15   ar
    20    10    11   ar
    21    11    12   ar
    22    11    36    1
    23    12    13   ar
    24    12    37    1
    25    13    14   ar
    26    13    38    1
    27    14    15   ar
    28    14    39    1
    29    17    18    1
    30    17    29    1
    31    17    19    1
    32    19    20    1
    33    19    40    1
    34    19    41    1
    35    20    21    1
    36    20    42    1
    37    20    43    1
    38    21    22    1
    39    21    29    1
    40    22    23    1
    41    22    44    1
    42    22    45    1
    43    23    28   ar
    44    23    24   ar
    45    24    25   ar
    46    24    46    1
    47    25    26   ar
    48    25    47    1
    49    26    27   ar
    50    26    48    1
    51    27    28   ar
    52    27    49    1
    53    28    50    1
    54    29    51    1
    55    29    52    1
@<TRIPOS>SUBSTRUCTURE
     1 ZINC000186316242        1 TEMP              0 ****  ****    0 ROOT


##########                                Name:    ZINC000422507946
##########                DOCK_Rotatable_Bonds:                   7
##########                         Heavy_Atoms:                  25
##########                    Molecular_Weight:             364.484
##########                DOCK_Rotatable_Bonds:                   7
##########                       Formal_Charge:          0.00999952
##########                     HBond_Acceptors:                   6
##########                        HBond_Donors:                   1
##########                         Heavy_Atoms:                  25
##########                          Grid_Score:          -25.912983
##########                     Grid_vdw_energy:          -25.298187
##########                      Grid_es_energy:           -0.614796
##########           Internal_energy_repulsive:           36.892147

@<TRIPOS>MOLECULE
ZINC000422507946
 50 52 1 0 0
SMALL
USER_CHARGES


@<TRIPOS>ATOM
      1 C1         -4.8726    4.6393   54.0864 C.3     1  ZINC000422507946   -0.1400
      2 C2         -4.6796    3.2911   53.3893 C.3     1  ZINC000422507946   -0.0400
      3 H3         -4.3556    2.5366   54.1061 H       1  ZINC000422507946    0.1100
      4 C4         -3.6543    3.4200   52.2437 C.3     1  ZINC000422507946   -0.1400
      5 C5         -4.0492    2.4577   51.1101 C.3     1  ZINC000422507946    0.1400
      6 H6         -3.8516    1.4285   51.4095 H       1  ZINC000422507946    0.1100
      7 N7         -3.2953    2.7788   49.8956 N.am    1  ZINC000422507946   -0.6900
      8 C8         -2.0395    2.3151   49.7396 C.2     1  ZINC000422507946    0.5100
      9 O9         -1.5338    1.6303   50.6044 O.2     1  ZINC000422507946   -0.5000
     10 C10        -1.2699    2.6442   48.5016 C.2     1  ZINC000422507946    0.5100
     11 O11        -1.7302    2.3752   47.4115 O.2     1  ZINC000422507946   -0.5200
     12 N12        -0.0644    3.2397   48.5959 N.am    1  ZINC000422507946   -0.5700
     13 C13         0.6900    3.5623   47.3822 C.3     1  ZINC000422507946    0.1400
     14 C14         1.5940    2.4087   47.0311 C.ar    1  ZINC000422507946   -0.0800
     15 C15         2.8043    2.6448   46.4065 C.ar    1  ZINC000422507946   -0.1100
     16 C16         3.6347    1.5875   46.0837 C.ar    1  ZINC000422507946   -0.0900
     17 C17         3.2556    0.2935   46.3855 C.ar    1  ZINC000422507946   -0.1500
     18 C18         2.0435    0.0558   47.0116 C.ar    1  ZINC000422507946    0.1000
     19 F19         1.6719   -1.2089   47.3070 F       1  ZINC000422507946   -0.1400
     20 C20         1.2153    1.1157   47.3390 C.ar    1  ZINC000422507946   -0.1500
     21 C21         0.4913    3.5644   49.9119 C.3     1  ZINC000422507946    0.1400
     22 C22         1.9794    3.9479   49.7770 C.3     1  ZINC000422507946   -0.1200
     23 C23         1.9676    5.4949   49.7004 C.3     1  ZINC000422507946   -0.1300
     24 C24         0.8491    5.8780   50.7010 C.3     1  ZINC000422507946   -0.1200
     25 C25        -0.2273    4.7916   50.4993 C.3     1  ZINC000422507946   -0.1600
     26 C26        -5.5676    2.6546   50.8598 C.3     1  ZINC000422507946   -0.0900
     27 S27        -6.2312    2.7685   52.5697 S.3     1  ZINC000422507946   -0.2700
     28 H28        -5.6201    4.5378   54.8733 H       1  ZINC000422507946    0.0700
     29 H29        -3.9272    4.9614   54.5228 H       1  ZINC000422507946    0.0700
     30 H30        -5.2081    5.3793   53.3598 H       1  ZINC000422507946    0.0700
     31 H31        -3.6504    4.4438   51.8697 H       1  ZINC000422507946    0.0900
     32 H32        -2.6607    3.1638   52.6114 H       1  ZINC000422507946    0.0900
     33 H33        -3.7001    3.3252   49.2038 H       1  ZINC000422507946    0.4100
     34 H34        -0.0033    3.7435   46.5608 H       1  ZINC000422507946    0.1100
     35 H35         1.2908    4.4553   47.5544 H       1  ZINC000422507946    0.1000
     36 H36         3.1012    3.6559   46.1699 H       1  ZINC000422507946    0.1400
     37 H37         4.5799    1.7731   45.5954 H       1  ZINC000422507946    0.1300
     38 H38         3.9042   -0.5322   46.1326 H       1  ZINC000422507946    0.1400
     39 H39         0.2699    0.9315   47.8277 H       1  ZINC000422507946    0.1400
     40 H40         0.3839    2.7121   50.5829 H       1  ZINC000422507946    0.1100
     41 H41         2.5402    3.6134   50.6498 H       1  ZINC000422507946    0.0800
     42 H42         2.4016    3.5241   48.8658 H       1  ZINC000422507946    0.0600
     43 H43         2.9266    5.9046   50.0175 H       1  ZINC000422507946    0.0700
     44 H44         1.7170    5.8298   48.6939 H       1  ZINC000422507946    0.0600
     45 H45         1.2272    5.8553   51.7230 H       1  ZINC000422507946    0.0700
     46 H46         0.4464    6.8628   50.4641 H       1  ZINC000422507946    0.0700
     47 H47        -0.9897    5.1456   49.8053 H       1  ZINC000422507946    0.0900
     48 H48        -0.6829    4.5352   51.4557 H       1  ZINC000422507946    0.0800
     49 H49        -5.7537    3.5760   50.3081 H       1  ZINC000422507946    0.1000
     50 H50        -5.9893    1.7960   50.3371 H       1  ZINC000422507946    0.1100
@<TRIPOS>BOND
     1     1     2    1
     2     1    28    1
     3     1    29    1
     4     1    30    1
     5     2     3    1
     6     2    27    1
     7     2     4    1
     8     4     5    1
     9     4    31    1
    10     4    32    1
    11     5     6    1
    12     5     7    1
    13     5    26    1
    14     7     8   am
    15     7    33    1
    16     8     9    2
    17     8    10    1
    18    10    11    2
    19    10    12   am
    20    12    13    1
    21    12    21    1
    22    13    14    1
    23    13    34    1
    24    13    35    1
    25    14    20   ar
    26    14    15   ar
    27    15    16   ar
    28    15    36    1
    29    16    17   ar
    30    16    37    1
    31    17    18   ar
    32    17    38    1
    33    18    19    1
    34    18    20   ar
    35    20    39    1
    36    21    25    1
    37    21    22    1
    38    21    40    1
    39    22    23    1
    40    22    41    1
    41    22    42    1
    42    23    24    1
    43    23    43    1
    44    23    44    1
    45    24    25    1
    46    24    45    1
    47    24    46    1
    48    25    47    1
    49    25    48    1
    50    26    27    1
    51    26    49    1
    52    26    50    1
@<TRIPOS>SUBSTRUCTURE
     1 ZINC000422507946        1 TEMP              0 ****  ****    0 ROOT


##########                                Name:    ZINC000866717058
##########                DOCK_Rotatable_Bonds:                   7
##########                         Heavy_Atoms:                  25
##########                    Molecular_Weight:             380.388
##########                DOCK_Rotatable_Bonds:                   7
##########                       Formal_Charge:                0.04
##########                     HBond_Acceptors:                  10
##########                        HBond_Donors:                   1
##########                         Heavy_Atoms:                  25
##########                          Grid_Score:          -25.902599
##########                     Grid_vdw_energy:          -24.012115
##########                      Grid_es_energy:           -1.890484
##########           Internal_energy_repulsive:            9.332621

@<TRIPOS>MOLECULE
ZINC000866717058
 44 45 1 0 0
SMALL
USER_CHARGES


@<TRIPOS>ATOM
      1 C1         -9.0833    0.3419   60.6208 C.3     1  ZINC000866717058   -0.1100
      2 C2         -9.0684    0.6528   59.1463 C.ar    1  ZINC000866717058    0.2400
      3 N3         -7.9931    1.1826   58.6026 N.ar    1  ZINC000866717058   -0.5500
      4 C4         -7.9343    1.4725   57.3117 C.ar    1  ZINC000866717058    0.3500
      5 O5         -6.8036    2.0166   56.8002 O.3     1  ZINC000866717058   -0.2800
      6 C6         -6.9225    3.3011   56.1854 C.3     1  ZINC000866717058    0.0500
      7 H7         -7.9143    3.4028   55.7448 H       1  ZINC000866717058    0.1300
      8 C8         -6.7182    4.3916   57.2391 C.3     1  ZINC000866717058   -0.1700
      9 C9         -5.8617    3.4433   55.0921 C.3     1  ZINC000866717058    0.4600
     10 F10        -5.6873    4.7969   54.7847 F       1  ZINC000866717058   -0.1700
     11 F11        -4.6509    2.9081   55.5446 F       1  ZINC000866717058   -0.1700
     12 F12        -6.2769    2.7548   53.9471 F       1  ZINC000866717058   -0.1700
     13 C13        -9.0167    1.2260   56.4730 C.ar    1  ZINC000866717058   -0.1900
     14 C14       -10.1654    0.6713   56.9994 C.ar    1  ZINC000866717058    0.0000
     15 C15       -10.1928    0.3710   58.3691 C.ar    1  ZINC000866717058   -0.2300
     16 C16       -11.3970   -0.2238   58.9816 C.2     1  ZINC000866717058    0.5800
     17 O17       -12.2793    0.4948   59.4100 O.2     1  ZINC000866717058   -0.5200
     18 N18       -11.5185   -1.5635   59.0660 N.am    1  ZINC000866717058   -0.7400
     19 C19       -12.7129   -2.1537   59.6755 C.3     1  ZINC000866717058    0.1400
     20 C20       -13.8904   -2.0378   58.7056 C.3     1  ZINC000866717058   -0.5700
     21 H21       -14.0089   -1.0094   58.3642 H       1  ZINC000866717058    0.1500
     22 C22       -13.7092   -2.9993   57.5027 C.3     1  ZINC000866717058   -0.1100
     23 C23       -15.1007   -3.1818   56.8715 C.3     1  ZINC000866717058   -0.1200
     24 C24       -16.1183   -3.4708   57.9929 C.3     1  ZINC000866717058   -0.5900
     25 S25       -15.4348   -2.6477   59.4815 S.o2    1  ZINC000866717058    2.3700
     26 O26       -15.1121   -3.6299   60.4563 O.2     1  ZINC000866717058   -0.9200
     27 O27       -16.2605   -1.5452   59.8308 O.2     1  ZINC000866717058   -0.9300
     28 H28        -8.8344   -0.7083   60.7732 H       1  ZINC000866717058    0.0900
     29 H29        -8.3506    0.9668   61.1313 H       1  ZINC000866717058    0.0700
     30 H30       -10.0759    0.5422   61.0243 H       1  ZINC000866717058    0.1100
     31 H31        -6.8088    5.3714   56.7701 H       1  ZINC000866717058    0.0900
     32 H32        -7.4739    4.2903   58.0179 H       1  ZINC000866717058    0.0900
     33 H33        -5.7264    4.2900   57.6796 H       1  ZINC000866717058    0.0800
     34 H34        -8.9587    1.4664   55.4217 H       1  ZINC000866717058    0.1600
     35 H35       -11.0206    0.4697   56.3715 H       1  ZINC000866717058    0.1500
     36 H36       -10.8152   -2.1368   58.7232 H       1  ZINC000866717058    0.4000
     37 H37       -12.5264   -3.2046   59.8966 H       1  ZINC000866717058    0.1000
     38 H38       -12.9491   -1.6245   60.5986 H       1  ZINC000866717058    0.1000
     39 H39       -13.0240   -2.5630   56.7760 H       1  ZINC000866717058    0.1100
     40 H40       -13.3268   -3.9601   57.8471 H       1  ZINC000866717058    0.0900
     41 H41       -15.3859   -2.2717   56.3437 H       1  ZINC000866717058    0.0900
     42 H42       -15.0791   -4.0173   56.1719 H       1  ZINC000866717058    0.1000
     43 H43       -17.0900   -3.0461   57.7412 H       1  ZINC000866717058    0.1400
     44 H44       -16.2050   -4.5448   58.1578 H       1  ZINC000866717058    0.1400
@<TRIPOS>BOND
     1     1     2    1
     2     1    28    1
     3     1    29    1
     4     1    30    1
     5     2    15   ar
     6     2     3   ar
     7     3     4   ar
     8     4     5    1
     9     4    13   ar
    10     5     6    1
    11     6     7    1
    12     6     8    1
    13     6     9    1
    14     8    31    1
    15     8    32    1
    16     8    33    1
    17     9    10    1
    18     9    11    1
    19     9    12    1
    20    13    14   ar
    21    13    34    1
    22    14    15   ar
    23    14    35    1
    24    15    16    1
    25    16    17    2
    26    16    18   am
    27    18    19    1
    28    18    36    1
    29    19    20    1
    30    19    37    1
    31    19    38    1
    32    20    21    1
    33    20    25    1
    34    20    22    1
    35    22    23    1
    36    22    39    1
    37    22    40    1
    38    23    24    1
    39    23    41    1
    40    23    42    1
    41    24    25    1
    42    24    43    1
    43    24    44    1
    44    25    26    2
    45    25    27    2
@<TRIPOS>SUBSTRUCTURE
     1 ZINC000866717058        1 TEMP              0 ****  ****    0 ROOT


##########                                Name:    ZINC000271662144
##########                DOCK_Rotatable_Bonds:                   8
##########                         Heavy_Atoms:                  26
##########                    Molecular_Weight:             390.402
##########                DOCK_Rotatable_Bonds:                   8
##########                       Formal_Charge:          0.00999944
##########                     HBond_Acceptors:                   9
##########                        HBond_Donors:                   3
##########                         Heavy_Atoms:                  26
##########                          Grid_Score:          -25.899807
##########                     Grid_vdw_energy:          -24.221861
##########                      Grid_es_energy:           -1.677946
##########           Internal_energy_repulsive:           26.623554

@<TRIPOS>MOLECULE
ZINC000271662144
 44 45 1 0 0
SMALL
USER_CHARGES


@<TRIPOS>ATOM
      1 C1        -11.0163    3.0471   57.7022 C.3     1  ZINC000271662144   -0.1400
      2 C2        -10.3495    1.6775   57.5597 C.3     1  ZINC000271662144    0.1200
      3 H3        -11.0984    0.9361   57.2812 H       1  ZINC000271662144    0.0600
      4 N4         -9.7352    1.2965   58.8386 N.3     1  ZINC000271662144   -0.6700
      5 C5         -9.8229   -0.1542   59.0531 C.3     1  ZINC000271662144    0.1300
      6 H6         -9.8268   -0.6643   58.0898 H       1  ZINC000271662144    0.1100
      7 C7         -8.6191   -0.6221   59.8732 C.3     1  ZINC000271662144   -0.2000
      8 C8         -8.7921   -0.1837   61.3289 C.3     1  ZINC000271662144    0.4600
      9 F9         -9.8396   -0.9051   61.9118 F       1  ZINC000271662144   -0.1800
     10 F10        -7.6086   -0.4284   62.0335 F       1  ZINC000271662144   -0.1800
     11 F11        -9.0867    1.1833   61.3723 F       1  ZINC000271662144   -0.1700
     12 C12       -11.0933   -0.4760   59.7971 C.ar    1  ZINC000271662144   -0.0900
     13 C13       -11.5876   -1.7671   59.7938 C.ar    1  ZINC000271662144   -0.0600
     14 C14       -12.7524   -2.0634   60.4757 C.ar    1  ZINC000271662144   -0.1600
     15 C15       -13.4244   -1.0666   61.1627 C.ar    1  ZINC000271662144    0.1000
     16 F16       -14.5631   -1.3552   61.8301 F       1  ZINC000271662144   -0.1400
     17 C17       -12.9283    0.2260   61.1657 C.ar    1  ZINC000271662144   -0.1500
     18 C18       -11.7605    0.5189   60.4871 C.ar    1  ZINC000271662144   -0.0700
     19 C19        -9.2875    1.7444   56.4926 C.ar    1  ZINC000271662144   -0.1100
     20 C20        -8.0769    2.3553   56.7598 C.ar    1  ZINC000271662144   -0.0400
     21 C21        -7.1026    2.4166   55.7808 C.ar    1  ZINC000271662144   -0.1400
     22 C22        -7.3391    1.8667   54.5350 C.ar    1  ZINC000271662144   -0.0200
     23 C23        -8.5498    1.2549   54.2679 C.ar    1  ZINC000271662144   -0.6800
     24 S24        -8.8515    0.5544   52.6796 S.o2    1  ZINC000271662144    2.7000
     25 N25        -7.3857    0.0978   52.0588 N.am    1  ZINC000271662144   -1.2500
     26 O26        -9.5838   -0.6429   52.9016 O.2     1  ZINC000271662144   -0.9600
     27 O27        -9.3233    1.6129   51.8573 O.2     1  ZINC000271662144   -0.9600
     28 C28        -9.5221    1.1898   55.2480 C.ar    1  ZINC000271662144   -0.0100
     29 H29       -11.7844    2.9988   58.4741 H       1  ZINC000271662144    0.0600
     30 H30       -10.2674    3.7886   57.9809 H       1  ZINC000271662144    0.0700
     31 H31       -11.4721    3.3299   56.7533 H       1  ZINC000271662144    0.0600
     32 H32        -8.7782    1.6121   58.8883 H       1  ZINC000271662144    0.3500
     33 H33        -8.5482   -1.7089   59.8272 H       1  ZINC000271662144    0.1100
     34 H34        -7.7090   -0.1811   59.4668 H       1  ZINC000271662144    0.1200
     35 H35       -11.0632   -2.5444   59.2579 H       1  ZINC000271662144    0.1300
     36 H36       -13.1387   -3.0719   60.4724 H       1  ZINC000271662144    0.1400
     37 H37       -13.4518    1.0044   61.7009 H       1  ZINC000271662144    0.1400
     38 H38       -11.3732    1.5271   60.4896 H       1  ZINC000271662144    0.1300
     39 H39        -7.8921    2.7850   57.7332 H       1  ZINC000271662144    0.1400
     40 H40        -6.1568    2.8946   55.9894 H       1  ZINC000271662144    0.1400
     41 H41        -6.5782    1.9154   53.7700 H       1  ZINC000271662144    0.1400
     42 H42        -7.3375   -0.3138   51.1818 H       1  ZINC000271662144    0.4200
     43 H43        -6.5755    0.2419   52.5721 H       1  ZINC000271662144    0.4200
     44 H44       -10.4679    0.7118   55.0395 H       1  ZINC000271662144    0.1400
@<TRIPOS>BOND
     1     1     2    1
     2     1    29    1
     3     1    30    1
     4     1    31    1
     5     2     3    1
     6     2     4    1
     7     2    19    1
     8     4     5    1
     9     4    32    1
    10     5     6    1
    11     5     7    1
    12     5    12    1
    13     7     8    1
    14     7    33    1
    15     7    34    1
    16     8     9    1
    17     8    10    1
    18     8    11    1
    19    12    18   ar
    20    12    13   ar
    21    13    14   ar
    22    13    35    1
    23    14    15   ar
    24    14    36    1
    25    15    16    1
    26    15    17   ar
    27    17    18   ar
    28    17    37    1
    29    18    38    1
    30    19    28   ar
    31    19    20   ar
    32    20    21   ar
    33    20    39    1
    34    21    22   ar
    35    21    40    1
    36    22    23   ar
    37    22    41    1
    38    23    24    1
    39    23    28   ar
    40    24    25   am
    41    24    26    2
    42    24    27    2
    43    25    42    1
    44    25    43    1
    45    28    44    1
@<TRIPOS>SUBSTRUCTURE
     1 ZINC000271662144        1 TEMP              0 ****  ****    0 ROOT


##########                                Name:    ZINC000965273005
##########                DOCK_Rotatable_Bonds:                   7
##########                         Heavy_Atoms:                  27
##########                    Molecular_Weight:             368.436
##########                DOCK_Rotatable_Bonds:                   7
##########                       Formal_Charge:           0.0100003
##########                     HBond_Acceptors:                   7
##########                        HBond_Donors:                   2
##########                         Heavy_Atoms:                  27
##########                          Grid_Score:          -25.887966
##########                     Grid_vdw_energy:          -24.860052
##########                      Grid_es_energy:           -1.027914
##########           Internal_energy_repulsive:           10.866813

@<TRIPOS>MOLECULE
ZINC000965273005
 51 54 1 0 0
SMALL
USER_CHARGES


@<TRIPOS>ATOM
      1 C1        -10.7071    3.0939   55.7914 C.3     1  ZINC000965273005   -0.1200
      2 C2        -10.1331    2.6208   54.4809 C.ar    1  ZINC000965273005   -0.0300
      3 C3         -8.9785    3.1906   53.9860 C.ar    1  ZINC000965273005   -0.1200
      4 C4         -8.4501    2.7573   52.7827 C.ar    1  ZINC000965273005   -0.0900
      5 C5         -9.0748    1.7507   52.0685 C.ar    1  ZINC000965273005   -0.1300
      6 C6        -10.2304    1.1722   52.5522 C.ar    1  ZINC000965273005   -0.0900
      7 C7        -10.7655    1.6009   53.7677 C.ar    1  ZINC000965273005   -0.1300
      8 C8        -12.0035    0.9857   54.2920 C.2     1  ZINC000965273005    0.5800
      9 O9        -13.0509    1.6012   54.2549 O.2     1  ZINC000965273005   -0.5200
     10 N10       -11.9704   -0.2576   54.8112 N.am    1  ZINC000965273005   -0.6100
     11 C11       -10.7729   -1.1101   54.9239 C.3     1  ZINC000965273005    0.0900
     12 C12       -11.0904   -2.0890   56.0816 C.3     1  ZINC000965273005    0.1500
     13 H13       -10.5151   -3.0097   55.9837 H       1  ZINC000965273005    0.1200
     14 N14       -10.8508   -1.4593   57.3825 N.am    1  ZINC000965273005   -0.7100
     15 C15       -10.5916   -2.2222   58.4629 C.2     1  ZINC000965273005    0.6000
     16 O16       -10.5582   -3.4333   58.3583 O.2     1  ZINC000965273005   -0.5400
     17 C17       -10.3488   -1.5884   59.7717 C.2     1  ZINC000965273005   -0.2800
     18 C18        -9.1653   -1.0224   60.2011 C.2     1  ZINC000965273005    0.1000
     19 N19        -9.3687   -0.5609   61.4454 N.pl3   1  ZINC000965273005   -0.3600
     20 C20        -8.3737    0.1166   62.2804 C.3     1  ZINC000965273005    0.1000
     21 N21       -10.6915   -0.8356   61.8098 N.2     1  ZINC000965273005   -0.3000
     22 C22       -11.2857   -1.4414   60.8191 C.2     1  ZINC000965273005    0.1700
     23 C23       -12.7173   -1.9115   60.7991 C.3     1  ZINC000965273005   -0.0800
     24 C24       -13.7757   -0.9780   61.3901 C.3     1  ZINC000965273005   -0.1700
     25 C25       -13.6897   -1.1752   59.8754 C.3     1  ZINC000965273005   -0.1600
     26 C26       -12.6035   -2.3524   55.8606 C.3     1  ZINC000965273005    0.0900
     27 H27       -12.7543   -3.1233   55.1048 H       1  ZINC000965273005    0.0900
     28 O28       -13.2374   -2.7192   57.0876 O.3     1  ZINC000965273005   -0.5500
     29 C29       -13.1212   -0.9859   55.3649 C.3     1  ZINC000965273005    0.0600
     30 H30       -10.3564    2.4477   56.5961 H       1  ZINC000965273005    0.0800
     31 H31       -10.3846    4.1177   55.9809 H       1  ZINC000965273005    0.0700
     32 H32       -11.7955    3.0585   55.7453 H       1  ZINC000965273005    0.0700
     33 H33        -8.4859    3.9768   54.5389 H       1  ZINC000965273005    0.1300
     34 H34        -7.5462    3.2072   52.3994 H       1  ZINC000965273005    0.1300
     35 H35        -8.6573    1.4170   51.1299 H       1  ZINC000965273005    0.1300
     36 H36       -10.7173    0.3867   51.9933 H       1  ZINC000965273005    0.1300
     37 H37       -10.6094   -1.6592   53.9967 H       1  ZINC000965273005    0.0900
     38 H38        -9.8987   -0.5059   55.1670 H       1  ZINC000965273005    0.0900
     39 H39       -10.8788   -0.4933   57.4663 H       1  ZINC000965273005    0.4000
     40 H40        -8.2447   -0.9623   59.6396 H       1  ZINC000965273005    0.1800
     41 H41        -8.4214    1.1910   62.1032 H       1  ZINC000965273005    0.0800
     42 H42        -8.5810   -0.0880   63.3308 H       1  ZINC000965273005    0.1000
     43 H43        -7.3784   -0.2494   62.0286 H       1  ZINC000965273005    0.0900
     44 H44       -12.8620   -2.9838   60.9302 H       1  ZINC000965273005    0.1400
     45 H45       -14.6169   -1.4361   61.9104 H       1  ZINC000965273005    0.1000
     46 H46       -13.4364   -0.0238   61.7935 H       1  ZINC000965273005    0.1000
     47 H47       -13.2939   -0.3508   59.2822 H       1  ZINC000965273005    0.0900
     48 H48       -14.4743   -1.7631   59.3991 H       1  ZINC000965273005    0.1000
     49 H49       -13.3459   -3.6728   57.2046 H       1  ZINC000965273005    0.3900
     50 H50       -13.5531   -0.4293   56.1966 H       1  ZINC000965273005    0.0800
     51 H51       -13.8698   -1.1333   54.5863 H       1  ZINC000965273005    0.0800
@<TRIPOS>BOND
     1     1     2    1
     2     1    30    1
     3     1    31    1
     4     1    32    1
     5     2     7   ar
     6     2     3   ar
     7     3     4   ar
     8     3    33    1
     9     4     5   ar
    10     4    34    1
    11     5     6   ar
    12     5    35    1
    13     6     7   ar
    14     6    36    1
    15     7     8    1
    16     8     9    2
    17     8    10   am
    18    10    29    1
    19    10    11    1
    20    11    12    1
    21    11    37    1
    22    11    38    1
    23    12    13    1
    24    12    14    1
    25    12    26    1
    26    14    15   am
    27    14    39    1
    28    15    16    2
    29    15    17    1
    30    17    22    1
    31    17    18    2
    32    18    19    1
    33    18    40    1
    34    19    20    1
    35    19    21    1
    36    20    41    1
    37    20    42    1
    38    20    43    1
    39    21    22    2
    40    22    23    1
    41    23    25    1
    42    23    24    1
    43    23    44    1
    44    24    25    1
    45    24    45    1
    46    24    46    1
    47    25    47    1
    48    25    48    1
    49    26    27    1
    50    26    28    1
    51    26    29    1
    52    28    49    1
    53    29    50    1
    54    29    51    1
@<TRIPOS>SUBSTRUCTURE
     1 ZINC000965273005        1 TEMP              0 ****  ****    0 ROOT


##########                                Name:    ZINC001098311495
##########                DOCK_Rotatable_Bonds:                   8
##########                         Heavy_Atoms:                  24
##########                    Molecular_Weight:             328.454
##########                DOCK_Rotatable_Bonds:                   8
##########                       Formal_Charge:          0.00999987
##########                     HBond_Acceptors:                   4
##########                        HBond_Donors:                   1
##########                         Heavy_Atoms:                  24
##########                          Grid_Score:          -25.871819
##########                     Grid_vdw_energy:          -25.485250
##########                      Grid_es_energy:           -0.386567
##########           Internal_energy_repulsive:           24.181526

@<TRIPOS>MOLECULE
ZINC001098311495
 52 54 1 0 0
SMALL
USER_CHARGES


@<TRIPOS>ATOM
      1 C1         -3.1807    3.1906   56.6517 C.3     1  ZINC001098311495   -0.1500
      2 C2         -4.2150    3.0730   55.5304 C.3     1  ZINC001098311495    0.0500
      3 O3         -5.5198    2.9399   56.0979 O.3     1  ZINC001098311495   -0.2800
      4 C4         -6.5167    2.5495   55.2649 C.ar    1  ZINC001098311495    0.1900
      5 C5         -6.3301    2.5836   53.8912 C.ar    1  ZINC001098311495   -0.2200
      6 C6         -7.3482    2.1920   53.0443 C.ar    1  ZINC001098311495   -0.0500
      7 C7         -8.5586    1.7568   53.5582 C.ar    1  ZINC001098311495   -0.1700
      8 C8         -8.7593    1.7107   54.9210 C.ar    1  ZINC001098311495   -0.0500
      9 C9         -7.7382    2.1042   55.7889 C.ar    1  ZINC001098311495   -0.1800
     10 C10        -7.9462    2.0573   57.2489 C.2     1  ZINC001098311495    0.5600
     11 O11        -8.1144    3.0875   57.8724 O.2     1  ZINC001098311495   -0.5200
     12 N12        -7.9496    0.8725   57.8913 N.am    1  ZINC001098311495   -0.7200
     13 C13        -8.1579    0.8259   59.3407 C.3     1  ZINC001098311495    0.1600
     14 H14        -7.6134    1.6325   59.8316 H       1  ZINC001098311495    0.1000
     15 C15        -7.7303   -0.5496   59.9087 C.3     1  ZINC001098311495   -0.1200
     16 C16        -9.0484   -1.1192   60.5149 C.3     1  ZINC001098311495    0.0500
     17 H17        -9.0764   -2.2006   60.6479 H       1  ZINC001098311495    0.1100
     18 C18        -9.3221   -0.2761   61.7968 C.3     1  ZINC001098311495   -0.1500
     19 C19        -9.7577    1.1007   61.2383 C.3     1  ZINC001098311495   -0.1500
     20 C20        -9.6771    0.9037   59.6795 C.3     1  ZINC001098311495    0.0400
     21 H21       -10.2663    1.6034   59.0868 H       1  ZINC001098311495    0.1200
     22 N22       -10.0715   -0.5461   59.5693 N.3     1  ZINC001098311495   -0.4900
     23 C23       -11.4340   -0.7609   60.0747 C.3     1  ZINC001098311495    0.0600
     24 C24       -12.3640   -1.0197   58.9175 C.2     1  ZINC001098311495   -0.1600
     25 C25       -12.2343   -2.1110   58.2043 C.2     1  ZINC001098311495   -0.1200
     26 C26       -13.1643   -2.3699   57.0471 C.3     1  ZINC001098311495   -0.1200
     27 C27       -11.1551   -3.1074   58.5412 C.3     1  ZINC001098311495   -0.1200
     28 H28        -3.4032    4.0667   57.2608 H       1  ZINC001098311495    0.0700
     29 H29        -3.2167    2.2966   57.2743 H       1  ZINC001098311495    0.0700
     30 H30        -2.1856    3.2922   56.2189 H       1  ZINC001098311495    0.0800
     31 H31        -3.9926    2.1969   54.9214 H       1  ZINC001098311495    0.0600
     32 H32        -4.1791    3.9670   54.9078 H       1  ZINC001098311495    0.0600
     33 H33        -5.3890    2.9214   53.4831 H       1  ZINC001098311495    0.1300
     34 H34        -7.1997    2.2249   51.9752 H       1  ZINC001098311495    0.1300
     35 H35        -9.3487    1.4520   52.8879 H       1  ZINC001098311495    0.1300
     36 H36        -9.7048    1.3709   55.3172 H       1  ZINC001098311495    0.1300
     37 H37        -7.8142    0.0507   57.3941 H       1  ZINC001098311495    0.4000
     38 H38        -6.9735   -0.4264   60.6835 H       1  ZINC001098311495    0.0800
     39 H39        -7.3635   -1.1966   59.1120 H       1  ZINC001098311495    0.0800
     40 H40       -10.1235   -0.7223   62.3857 H       1  ZINC001098311495    0.0700
     41 H41        -8.4149   -0.1787   62.3931 H       1  ZINC001098311495    0.0800
     42 H42       -10.7751    1.3369   61.5504 H       1  ZINC001098311495    0.0700
     43 H43        -9.0665    1.8806   61.5578 H       1  ZINC001098311495    0.0800
     44 H44       -11.7649    0.1258   60.6154 H       1  ZINC001098311495    0.0500
     45 H45       -11.4414   -1.6197   60.7459 H       1  ZINC001098311495    0.0800
     46 H46       -13.1375   -0.3057   58.6760 H       1  ZINC001098311495    0.1100
     47 H47       -14.0366   -2.9212   57.3983 H       1  ZINC001098311495    0.0700
     48 H48       -12.6456   -2.9556   56.2881 H       1  ZINC001098311495    0.0600
     49 H49       -13.4833   -1.4201   56.6179 H       1  ZINC001098311495    0.0600
     50 H50       -10.2225   -2.8086   58.0627 H       1  ZINC001098311495    0.0700
     51 H51       -11.0150   -3.1399   59.6216 H       1  ZINC001098311495    0.0600
     52 H52       -11.4473   -4.0945   58.1829 H       1  ZINC001098311495    0.0600
@<TRIPOS>BOND
     1     1     2    1
     2     1    28    1
     3     1    29    1
     4     1    30    1
     5     2     3    1
     6     2    31    1
     7     2    32    1
     8     3     4    1
     9     4     9   ar
    10     4     5   ar
    11     5     6   ar
    12     5    33    1
    13     6     7   ar
    14     6    34    1
    15     7     8   ar
    16     7    35    1
    17     8     9   ar
    18     8    36    1
    19     9    10    1
    20    10    11    2
    21    10    12   am
    22    12    13    1
    23    12    37    1
    24    13    14    1
    25    13    20    1
    26    13    15    1
    27    15    16    1
    28    15    38    1
    29    15    39    1
    30    16    17    1
    31    16    22    1
    32    16    18    1
    33    18    19    1
    34    18    40    1
    35    18    41    1
    36    19    20    1
    37    19    42    1
    38    19    43    1
    39    20    21    1
    40    20    22    1
    41    22    23    1
    42    23    24    1
    43    23    44    1
    44    23    45    1
    45    24    25    2
    46    24    46    1
    47    25    26    1
    48    25    27    1
    49    26    47    1
    50    26    48    1
    51    26    49    1
    52    27    50    1
    53    27    51    1
    54    27    52    1
@<TRIPOS>SUBSTRUCTURE
     1 ZINC001098311495        1 TEMP              0 ****  ****    0 ROOT


##########                                Name:    ZINC000840649129
##########                DOCK_Rotatable_Bonds:                   8
##########                         Heavy_Atoms:                  26
##########                    Molecular_Weight:             376.839
##########                DOCK_Rotatable_Bonds:                   8
##########                       Formal_Charge:          -0.0199998
##########                     HBond_Acceptors:                   7
##########                        HBond_Donors:                   3
##########                         Heavy_Atoms:                  26
##########                          Grid_Score:          -25.862799
##########                     Grid_vdw_energy:          -25.867119
##########                      Grid_es_energy:            0.004319
##########           Internal_energy_repulsive:           13.395065

@<TRIPOS>MOLECULE
ZINC000840649129
 47 48 1 0 0
SMALL
USER_CHARGES


@<TRIPOS>ATOM
      1 C1        -14.5082   -1.7180   61.8051 C.3     1  ZINC000840649129    0.0200
      2 O2        -13.8284   -1.2162   60.6527 O.3     1  ZINC000840649129   -0.2900
      3 C3        -12.4814   -1.0754   60.7445 C.ar    1  ZINC000840649129    0.1400
      4 C4        -11.9294   -0.3295   61.7746 C.ar    1  ZINC000840649129   -0.1700
      5 C5        -10.5598   -0.1851   61.8697 C.ar    1  ZINC000840649129   -0.1200
      6 C6         -9.7234   -0.7860   60.9349 C.ar    1  ZINC000840649129    0.1700
      7 N7         -8.3361   -0.6340   61.0397 N.pl3   1  ZINC000840649129   -0.8800
      8 C8        -10.2600   -1.5345   59.9015 C.ar    1  ZINC000840649129   -0.1000
      9 C9        -11.6451   -1.6886   59.8014 C.ar    1  ZINC000840649129   -0.1200
     10 C10       -12.2245   -2.4845   58.7042 C.2     1  ZINC000840649129    0.5100
     11 O11       -11.7268   -3.5500   58.3980 O.2     1  ZINC000840649129   -0.4800
     12 O12       -13.3059   -2.0306   58.0409 O.3     1  ZINC000840649129   -0.3200
     13 C13       -13.7267   -2.7835   56.8727 C.3     1  ZINC000840649129    0.0800
     14 H14       -13.5096   -3.8408   57.0242 H       1  ZINC000840649129    0.1200
     15 C15       -12.9826   -2.2866   55.6601 C.2     1  ZINC000840649129    0.5200
     16 O16       -12.4437   -3.0760   54.9135 O.2     1  ZINC000840649129   -0.4900
     17 N17       -12.9160   -0.9648   55.4051 N.am    1  ZINC000840649129   -0.6600
     18 C18       -12.2249   -0.5031   54.2788 C.ar    1  ZINC000840649129    0.1600
     19 C19       -10.8826   -0.8143   54.1106 C.ar    1  ZINC000840649129   -0.1400
     20 C20       -10.2030   -0.3576   52.9976 C.ar    1  ZINC000840649129   -0.0900
     21 C21       -10.8581    0.4087   52.0516 C.ar    1  ZINC000840649129   -0.1300
     22 C22       -12.1953    0.7214   52.2157 C.ar    1  ZINC000840649129   -0.0900
     23 C23       -12.8824    0.2630   53.3235 C.ar    1  ZINC000840649129   -0.0700
     24 Cl24      -14.5611    0.6551   53.5289 Cl      1  ZINC000840649129   -0.0700
     25 C25       -15.2304   -2.5969   56.6601 C.3     1  ZINC000840649129   -0.1100
     26 C26       -15.7498   -3.6805   55.7131 C.3     1  ZINC000840649129   -0.1600
     27 C27       -15.9528   -2.7055   58.0045 C.3     1  ZINC000840649129   -0.1500
     28 H28       -15.5766   -1.7813   61.5978 H       1  ZINC000840649129    0.1000
     29 H29       -14.1262   -2.7091   62.0494 H       1  ZINC000840649129    0.0600
     30 H30       -14.3407   -1.0462   62.6470 H       1  ZINC000840649129    0.0600
     31 H31       -12.5725    0.1400   62.5041 H       1  ZINC000840649129    0.1400
     32 H32       -10.1357    0.3978   62.6740 H       1  ZINC000840649129    0.1300
     33 H33        -7.9588   -0.1101   61.7636 H       1  ZINC000840649129    0.4000
     34 H34        -7.7517   -1.0526   60.3883 H       1  ZINC000840649129    0.4000
     35 H35        -9.6095   -2.0010   59.1764 H       1  ZINC000840649129    0.1400
     36 H36       -13.3471   -0.3334   56.0021 H       1  ZINC000840649129    0.4200
     37 H37       -10.3697   -1.4126   54.8491 H       1  ZINC000840649129    0.1700
     38 H38        -9.1586   -0.5993   52.8667 H       1  ZINC000840649129    0.1300
     39 H39       -10.3243    0.7643   51.1827 H       1  ZINC000840649129    0.1300
     40 H40       -12.7042    1.3205   51.4751 H       1  ZINC000840649129    0.1400
     41 H41       -15.4168   -1.6148   56.2257 H       1  ZINC000840649129    0.0900
     42 H42       -15.4518   -4.6610   56.0845 H       1  ZINC000840649129    0.0700
     43 H43       -16.8372   -3.6268   55.6611 H       1  ZINC000840649129    0.0800
     44 H44       -15.3304   -3.5257   54.7190 H       1  ZINC000840649129    0.0600
     45 H45       -15.5827   -1.9336   58.6793 H       1  ZINC000840649129    0.0500
     46 H46       -17.0240   -2.5727   57.8531 H       1  ZINC000840649129    0.0600
     47 H47       -15.7663   -3.6877   58.4390 H       1  ZINC000840649129    0.0700
@<TRIPOS>BOND
     1     1     2    1
     2     1    28    1
     3     1    29    1
     4     1    30    1
     5     2     3    1
     6     3     9   ar
     7     3     4   ar
     8     4     5   ar
     9     4    31    1
    10     5     6   ar
    11     5    32    1
    12     6     7    1
    13     6     8   ar
    14     7    33    1
    15     7    34    1
    16     8     9   ar
    17     8    35    1
    18     9    10    1
    19    10    11    2
    20    10    12    1
    21    12    13    1
    22    13    14    1
    23    13    15    1
    24    13    25    1
    25    15    16    2
    26    15    17   am
    27    17    18    1
    28    17    36    1
    29    18    23   ar
    30    18    19   ar
    31    19    20   ar
    32    19    37    1
    33    20    21   ar
    34    20    38    1
    35    21    22   ar
    36    21    39    1
    37    22    23   ar
    38    22    40    1
    39    23    24    1
    40    25    26    1
    41    25    27    1
    42    25    41    1
    43    26    42    1
    44    26    43    1
    45    26    44    1
    46    27    45    1
    47    27    46    1
    48    27    47    1
@<TRIPOS>SUBSTRUCTURE
     1 ZINC000840649129        1 TEMP              0 ****  ****    0 ROOT


##########                                Name:    ZINC000277311370
##########                DOCK_Rotatable_Bonds:                   5
##########                         Heavy_Atoms:                  17
##########                    Molecular_Weight:             361.036
##########                DOCK_Rotatable_Bonds:                   5
##########                       Formal_Charge:        -7.45058e-08
##########                     HBond_Acceptors:                   4
##########                        HBond_Donors:                   1
##########                         Heavy_Atoms:                  17
##########                          Grid_Score:          -25.851349
##########                     Grid_vdw_energy:          -22.913752
##########                      Grid_es_energy:           -2.937597
##########           Internal_energy_repulsive:            7.839119

@<TRIPOS>MOLECULE
ZINC000277311370
 28 28 1 0 0
SMALL
USER_CHARGES


@<TRIPOS>ATOM
      1 C1          1.5501   -0.9293   62.1605 C.3     1  ZINC000277311370   -0.1500
      2 C2          0.8329   -0.6639   60.8352 C.3     1  ZINC000277311370   -0.1000
      3 C3         -0.3727   -1.5977   60.7118 C.3     1  ZINC000277311370   -0.1600
      4 C4          0.3582    0.7900   60.7947 C.3     1  ZINC000277311370    0.2500
      5 H5          1.2091    1.4545   60.9449 H       1  ZINC000277311370    0.1400
      6 C6         -0.6325    1.0127   61.8603 C.1     1  ZINC000277311370    0.1900
      7 N7         -1.3971    1.1845   62.6827 N.1     1  ZINC000277311370   -0.4100
      8 N8         -0.2540    1.0676   59.4929 N.am    1  ZINC000277311370   -0.7000
      9 C9         -0.4523    2.3413   59.0993 C.2     1  ZINC000277311370    0.5700
     10 O10        -0.1217    3.2595   59.8235 O.2     1  ZINC000277311370   -0.4900
     11 C11        -1.0728    2.6218   57.7842 C.ar    1  ZINC000277311370    0.1100
     12 N12        -2.3918    2.7393   57.6903 N.ar    1  ZINC000277311370   -0.4300
     13 C13        -2.9824    2.9888   56.5412 C.ar    1  ZINC000277311370    0.1300
     14 Br14       -4.8659    3.1444   56.4754 Br      1  ZINC000277311370    0.0200
     15 C15        -2.2425    3.1393   55.3776 C.ar    1  ZINC000277311370   -0.1100
     16 C16        -0.8630    3.0246   55.4303 C.ar    1  ZINC000277311370   -0.0400
     17 C17        -0.2667    2.7661   56.6561 C.ar    1  ZINC000277311370   -0.0900
     18 Br18        1.6120    2.5986   56.7923 Br      1  ZINC000277311370    0.0300
     19 H19         1.8883   -1.9651   62.1895 H       1  ZINC000277311370    0.0700
     20 H20         2.4089   -0.2640   62.2484 H       1  ZINC000277311370    0.0700
     21 H21         0.8638   -0.7479   62.9877 H       1  ZINC000277311370    0.0600
     22 H22         1.5192   -0.8453   60.0081 H       1  ZINC000277311370    0.1000
     23 H23        -1.0590   -1.4163   61.5390 H       1  ZINC000277311370    0.0600
     24 H24        -0.8837   -1.4086   59.7678 H       1  ZINC000277311370    0.0600
     25 H25        -0.0345   -2.6335   60.7408 H       1  ZINC000277311370    0.0700
     26 H26        -0.5168    0.3347   58.9143 H       1  ZINC000277311370    0.4200
     27 H27        -2.7371    3.3439   54.4397 H       1  ZINC000277311370    0.1600
     28 H28        -0.2650    3.1378   54.5381 H       1  ZINC000277311370    0.1700
@<TRIPOS>BOND
     1     1     2    1
     2     1    19    1
     3     1    20    1
     4     1    21    1
     5     2     3    1
     6     2     4    1
     7     2    22    1
     8     3    23    1
     9     3    24    1
    10     3    25    1
    11     4     5    1
    12     4     6    1
    13     4     8    1
    14     6     7    3
    15     8     9   am
    16     8    26    1
    17     9    10    2
    18     9    11    1
    19    11    17   ar
    20    11    12   ar
    21    12    13   ar
    22    13    14    1
    23    13    15   ar
    24    15    16   ar
    25    15    27    1
    26    16    17   ar
    27    16    28    1
    28    17    18    1
@<TRIPOS>SUBSTRUCTURE
     1 ZINC000277311370        1 TEMP              0 ****  ****    0 ROOT


##########                                Name:    ZINC001248546333
##########                DOCK_Rotatable_Bonds:                   6
##########                         Heavy_Atoms:                  27
##########                    Molecular_Weight:             378.397
##########                DOCK_Rotatable_Bonds:                   6
##########                       Formal_Charge:         3.94881e-07
##########                     HBond_Acceptors:                   8
##########                        HBond_Donors:                   1
##########                         Heavy_Atoms:                  27
##########                          Grid_Score:          -25.839491
##########                     Grid_vdw_energy:          -25.258400
##########                      Grid_es_energy:           -0.581090
##########           Internal_energy_repulsive:           11.933777

@<TRIPOS>MOLECULE
ZINC001248546333
 48 50 1 0 0
SMALL
USER_CHARGES


@<TRIPOS>ATOM
      1 C1        -10.7942    0.2382   52.2895 C.3     1  ZINC001248546333   -0.1200
      2 C2         -9.7086    0.8821   53.1130 C.ar    1  ZINC001248546333   -0.0800
      3 C3         -9.7747    0.8423   54.4940 C.ar    1  ZINC001248546333   -0.1200
      4 C4         -8.7820    1.4311   55.2573 C.ar    1  ZINC001248546333   -0.1100
      5 C5         -7.7192    2.0617   54.6443 C.ar    1  ZINC001248546333   -0.1100
      6 C6         -7.6464    2.1050   53.2515 C.ar    1  ZINC001248546333   -0.0600
      7 C7         -6.5103    2.7791   52.5881 C.2     1  ZINC001248546333   -0.0600
      8 C8         -6.2069    3.9933   52.9786 C.2     1  ZINC001248546333   -0.1700
      9 C9         -5.0891    4.8009   52.3796 C.3     1  ZINC001248546333    0.1500
     10 N10        -4.2711    3.9310   51.5224 N.am    1  ZINC001248546333   -0.6300
     11 C11        -2.9248    3.9888   51.5466 C.2     1  ZINC001248546333    0.7200
     12 O12        -2.3632    4.7720   52.2878 O.2     1  ZINC001248546333   -0.5800
     13 N13        -2.2010    3.1785   50.7490 N.am    1  ZINC001248546333   -0.7500
     14 C14        -0.7376    3.2413   50.7752 C.3     1  ZINC001248546333    0.2000
     15 C15        -0.1743    2.2407   49.7994 C.2     1  ZINC001248546333    0.0700
     16 C16         0.8750    1.4151   50.0195 C.2     1  ZINC001248546333   -0.2000
     17 C17         1.0709    0.6508   48.8646 C.2     1  ZINC001248546333   -0.0200
     18 C18         2.1338   -0.3997   48.6700 C.3     1  ZINC001248546333    0.5600
     19 F19         1.9535   -1.0214   47.4298 F       1  ZINC001248546333   -0.1700
     20 F20         3.3964    0.2013   48.7113 F       1  ZINC001248546333   -0.1700
     21 F21         2.0382   -1.3541   49.6884 F       1  ZINC001248546333   -0.1600
     22 N22         0.1716    1.0047   47.9828 N.2     1  ZINC001248546333   -0.2200
     23 N23        -0.6297    2.0033   48.5514 N.pl3   1  ZINC001248546333   -0.3400
     24 C24        -1.7571    2.6772   47.9025 C.3     1  ZINC001248546333    0.0900
     25 C25        -4.9819    2.9937   50.6356 C.3     1  ZINC001248546333    0.1300
     26 C26        -5.7783    2.0258   51.5175 C.3     1  ZINC001248546333   -0.1000
     27 C27        -8.6480    1.5052   52.4876 C.ar    1  ZINC001248546333   -0.1100
     28 H28       -10.5336   -0.8021   52.0947 H       1  ZINC001248546333    0.0700
     29 H29       -11.7372    0.2807   52.8344 H       1  ZINC001248546333    0.0700
     30 H30       -10.8967    0.7703   51.3437 H       1  ZINC001248546333    0.0700
     31 H31       -10.6047    0.3499   54.9787 H       1  ZINC001248546333    0.1200
     32 H32        -8.8398    1.3972   56.3352 H       1  ZINC001248546333    0.1200
     33 H33        -6.9452    2.5213   55.2412 H       1  ZINC001248546333    0.1200
     34 H34        -6.7905    4.4366   53.7718 H       1  ZINC001248546333    0.1200
     35 H35        -5.5054    5.6127   51.7832 H       1  ZINC001248546333    0.0800
     36 H36        -4.4702    5.2133   53.1765 H       1  ZINC001248546333    0.0800
     37 H37        -2.6491    2.5536   50.1577 H       1  ZINC001248546333    0.4000
     38 H38        -0.4121    4.2436   50.4966 H       1  ZINC001248546333    0.1000
     39 H39        -0.3819    3.0098   51.7791 H       1  ZINC001248546333    0.0900
     40 H40         1.4582    1.3569   50.9266 H       1  ZINC001248546333    0.1700
     41 H41        -2.6752    2.1252   48.1039 H       1  ZINC001248546333    0.0900
     42 H42        -1.8489    3.6903   48.2941 H       1  ZINC001248546333    0.1000
     43 H43        -1.5859    2.7176   46.8269 H       1  ZINC001248546333    0.1000
     44 H44        -5.6587    3.5452   49.9830 H       1  ZINC001248546333    0.0700
     45 H45        -4.2625    2.4366   50.0355 H       1  ZINC001248546333    0.1000
     46 H46        -5.0954    1.3099   51.9749 H       1  ZINC001248546333    0.0800
     47 H47        -6.5003    1.4887   50.9023 H       1  ZINC001248546333    0.0900
     48 H48        -8.5974    1.5353   51.4091 H       1  ZINC001248546333    0.1200
@<TRIPOS>BOND
     1     1     2    1
     2     1    28    1
     3     1    29    1
     4     1    30    1
     5     2    27   ar
     6     2     3   ar
     7     3     4   ar
     8     3    31    1
     9     4     5   ar
    10     4    32    1
    11     5     6   ar
    12     5    33    1
    13     6     7    1
    14     6    27   ar
    15     7    26    1
    16     7     8    2
    17     8     9    1
    18     8    34    1
    19     9    10    1
    20     9    35    1
    21     9    36    1
    22    10    11   am
    23    10    25    1
    24    11    12    2
    25    11    13   am
    26    13    14    1
    27    13    37    1
    28    14    15    1
    29    14    38    1
    30    14    39    1
    31    15    23    1
    32    15    16    2
    33    16    17    1
    34    16    40    1
    35    17    18    1
    36    17    22    2
    37    18    19    1
    38    18    20    1
    39    18    21    1
    40    22    23    1
    41    23    24    1
    42    24    41    1
    43    24    42    1
    44    24    43    1
    45    25    26    1
    46    25    44    1
    47    25    45    1
    48    26    46    1
    49    26    47    1
    50    27    48    1
@<TRIPOS>SUBSTRUCTURE
     1 ZINC001248546333        1 TEMP              0 ****  ****    0 ROOT


##########                                Name:    ZINC001011676549
##########                DOCK_Rotatable_Bonds:                   6
##########                         Heavy_Atoms:                  24
##########                    Molecular_Weight:             330.387
##########                DOCK_Rotatable_Bonds:                   6
##########                       Formal_Charge:        -1.49012e-07
##########                     HBond_Acceptors:                   7
##########                        HBond_Donors:                   1
##########                         Heavy_Atoms:                  24
##########                          Grid_Score:          -25.806118
##########                     Grid_vdw_energy:          -24.775057
##########                      Grid_es_energy:           -1.031061
##########           Internal_energy_repulsive:           12.560670

@<TRIPOS>MOLECULE
ZINC001011676549
 46 48 1 0 0
SMALL
USER_CHARGES


@<TRIPOS>ATOM
      1 C1        -11.8038   -2.6733   59.0495 C.3     1  ZINC001011676549   -0.1700
      2 C2        -12.3151   -1.2320   59.0049 C.3     1  ZINC001011676549    0.1300
      3 H3        -12.1414   -0.8076   58.0161 H       1  ZINC001011676549    0.0900
      4 C4        -13.8228   -1.1996   59.3325 C.3     1  ZINC001011676549    0.1400
      5 H5        -14.3279   -0.4300   58.7488 H       1  ZINC001011676549    0.1100
      6 N6        -14.4328   -2.5105   59.0961 N.am    1  ZINC001011676549   -0.7200
      7 C7        -15.7056   -2.5927   58.6603 C.2     1  ZINC001011676549    0.5200
      8 O8        -16.3463   -1.5816   58.4652 O.2     1  ZINC001011676549   -0.5300
      9 C9        -16.3324   -3.9411   58.4155 C.3     1  ZINC001011676549   -0.0900
     10 C10       -16.0217   -4.3921   57.0115 C.ar    1  ZINC001011676549   -0.1800
     11 C11       -15.5674   -5.6778   56.7633 C.ar    1  ZINC001011676549    0.1600
     12 N12       -15.3048   -6.0384   55.5175 N.ar    1  ZINC001011676549   -0.5200
     13 C13       -15.4703   -5.1923   54.5206 C.ar    1  ZINC001011676549    0.3000
     14 N14       -15.9003   -3.9624   54.7187 N.ar    1  ZINC001011676549   -0.5200
     15 C15       -16.1886   -3.5331   55.9369 C.ar    1  ZINC001011676549    0.1600
     16 C16       -13.8428   -0.8448   60.8428 C.3     1  ZINC001011676549   -0.1400
     17 C17       -12.6375    0.1222   60.9511 C.3     1  ZINC001011676549    0.1000
     18 N18       -11.6265   -0.4255   60.0232 N.am    1  ZINC001011676549   -0.6100
     19 C19       -10.2966   -0.2215   60.1012 C.2     1  ZINC001011676549    0.5800
     20 O20        -9.5550   -0.7242   59.2787 O.2     1  ZINC001011676549   -0.5300
     21 C21        -9.7419    0.6091   61.1811 C.2     1  ZINC001011676549   -0.1400
     22 C22        -9.7056    1.9199   61.0231 C.2     1  ZINC001011676549   -0.1500
     23 C23        -9.1494    2.8457   62.0679 C.3     1  ZINC001011676549    0.0900
     24 O24        -9.0326    2.1624   63.3173 O.3     1  ZINC001011676549   -0.3800
     25 C25        -8.3481    0.9083   63.2103 C.3     1  ZINC001011676549    0.0600
     26 C26        -9.2409   -0.0629   62.4301 C.3     1  ZINC001011676549   -0.1100
     27 H27       -11.9694   -3.0871   60.0443 H       1  ZINC001011676549    0.0600
     28 H28       -12.3400   -3.2719   58.3131 H       1  ZINC001011676549    0.0700
     29 H29       -10.7378   -2.6878   58.8227 H       1  ZINC001011676549    0.0800
     30 H30       -13.9208   -3.3191   59.2533 H       1  ZINC001011676549    0.4100
     31 H31       -15.9303   -4.6631   59.1264 H       1  ZINC001011676549    0.1100
     32 H32       -17.4124   -3.8683   58.5431 H       1  ZINC001011676549    0.1100
     33 H33       -15.4294   -6.3759   57.5758 H       1  ZINC001011676549    0.1700
     34 H34       -15.2472   -5.5155   53.5144 H       1  ZINC001011676549    0.2000
     35 H35       -16.5410   -2.5240   56.0923 H       1  ZINC001011676549    0.1700
     36 H36       -14.7717   -0.3431   61.1140 H       1  ZINC001011676549    0.0900
     37 H37       -13.6872   -1.7331   61.4549 H       1  ZINC001011676549    0.0800
     38 H38       -12.9281    1.1267   60.6433 H       1  ZINC001011676549    0.0800
     39 H39       -12.2507    0.1338   61.9701 H       1  ZINC001011676549    0.0800
     40 H40       -10.0905    2.3429   60.1069 H       1  ZINC001011676549    0.1200
     41 H41        -8.1659    3.1958   61.7541 H       1  ZINC001011676549    0.0700
     42 H42        -9.8151    3.7009   62.1844 H       1  ZINC001011676549    0.1100
     43 H43        -7.4051    1.0496   62.6822 H       1  ZINC001011676549    0.0600
     44 H44        -8.1572    0.5091   64.2065 H       1  ZINC001011676549    0.1000
     45 H45       -10.0845   -0.3605   63.0528 H       1  ZINC001011676549    0.0900
     46 H46        -8.6637   -0.9457   62.1554 H       1  ZINC001011676549    0.0900
@<TRIPOS>BOND
     1     1     2    1
     2     1    27    1
     3     1    28    1
     4     1    29    1
     5     2     3    1
     6     2    18    1
     7     2     4    1
     8     4     5    1
     9     4     6    1
    10     4    16    1
    11     6     7   am
    12     6    30    1
    13     7     8    2
    14     7     9    1
    15     9    10    1
    16     9    31    1
    17     9    32    1
    18    10    15   ar
    19    10    11   ar
    20    11    12   ar
    21    11    33    1
    22    12    13   ar
    23    13    14   ar
    24    13    34    1
    25    14    15   ar
    26    15    35    1
    27    16    17    1
    28    16    36    1
    29    16    37    1
    30    17    18    1
    31    17    38    1
    32    17    39    1
    33    18    19   am
    34    19    20    2
    35    19    21    1
    36    21    26    1
    37    21    22    2
    38    22    23    1
    39    22    40    1
    40    23    24    1
    41    23    41    1
    42    23    42    1
    43    24    25    1
    44    25    26    1
    45    25    43    1
    46    25    44    1
    47    26    45    1
    48    26    46    1
@<TRIPOS>SUBSTRUCTURE
     1 ZINC001011676549        1 TEMP              0 ****  ****    0 ROOT


##########                                Name:    ZINC000516003207
##########                DOCK_Rotatable_Bonds:                   5
##########                         Heavy_Atoms:                  24
##########                    Molecular_Weight:             342.462
##########                DOCK_Rotatable_Bonds:                   5
##########                       Formal_Charge:          -0.0200001
##########                     HBond_Acceptors:                   5
##########                        HBond_Donors:                   1
##########                         Heavy_Atoms:                  24
##########                          Grid_Score:          -25.762650
##########                     Grid_vdw_energy:          -26.048424
##########                      Grid_es_energy:            0.285774
##########           Internal_energy_repulsive:            9.860438

@<TRIPOS>MOLECULE
ZINC000516003207
 46 49 1 0 0
SMALL
USER_CHARGES


@<TRIPOS>ATOM
      1 C1        -11.6473    1.0690   53.2671 C.3     1  ZINC000516003207    0.0300
      2 O2        -10.4455    1.2227   52.5094 O.3     1  ZINC000516003207   -0.3600
      3 C3         -9.2515    0.9983   53.2616 C.3     1  ZINC000516003207    0.0900
      4 H4         -9.4116    0.3599   54.1305 H       1  ZINC000516003207    0.0800
      5 C5         -8.0477    0.5775   52.3991 C.3     1  ZINC000516003207   -0.1700
      6 C6         -7.7192    2.0748   52.2568 C.3     1  ZINC000516003207    0.1500
      7 H7         -8.1992    2.5486   51.4007 H       1  ZINC000516003207    0.1200
      8 N8         -6.2876    2.3737   52.3449 N.am    1  ZINC000516003207   -0.7200
      9 C9         -5.5263    2.3576   51.2328 C.2     1  ZINC000516003207    0.5600
     10 O10        -6.0277    2.0966   50.1567 O.2     1  ZINC000516003207   -0.5300
     11 C11        -4.0811    2.6574   51.3219 C.ar    1  ZINC000516003207   -0.1400
     12 C12        -3.5060    2.9702   52.5550 C.ar    1  ZINC000516003207   -0.0800
     13 C13        -2.1567    3.2508   52.6385 C.ar    1  ZINC000516003207   -0.1200
     14 C14        -1.3683    3.2234   51.5050 C.ar    1  ZINC000516003207   -0.0800
     15 C15        -1.9308    2.9120   50.2672 C.ar    1  ZINC000516003207   -0.0300
     16 C16        -1.0815    2.8834   49.0511 C.2     1  ZINC000516003207    0.1100
     17 C17        -1.5545    2.5493   47.8336 C.2     1  ZINC000516003207   -0.2600
     18 S18        -0.2189    2.6469   46.6890 S.3     1  ZINC000516003207    0.1400
     19 C19         0.8390    3.1233   47.9441 C.2     1  ZINC000516003207    0.0600
     20 C20         2.3037    3.4287   47.7635 C.3     1  ZINC000516003207   -0.0800
     21 N21         0.2078    3.1896   49.0649 N.2     1  ZINC000516003207   -0.4700
     22 C22        -3.2884    2.6230   50.1758 C.ar    1  ZINC000516003207   -0.0300
     23 C23        -8.4739    2.2771   53.5747 C.3     1  ZINC000516003207   -0.1100
     24 C24        -9.1972    3.5897   53.8783 C.3     1  ZINC000516003207   -0.1200
     25 C25        -8.9169    3.2999   55.3640 C.3     1  ZINC000516003207   -0.1400
     26 C26        -7.7248    2.4450   54.8971 C.3     1  ZINC000516003207   -0.1200
     27 H27       -11.6494    1.7800   54.0933 H       1  ZINC000516003207    0.0400
     28 H28       -12.5081    1.2559   52.6249 H       1  ZINC000516003207    0.0900
     29 H29       -11.7013    0.0541   53.6609 H       1  ZINC000516003207    0.0400
     30 H30        -7.2925    0.0158   52.9489 H       1  ZINC000516003207    0.0900
     31 H31        -8.3294    0.1017   51.4598 H       1  ZINC000516003207    0.0800
     32 H32        -5.8878    2.5832   53.2034 H       1  ZINC000516003207    0.4000
     33 H33        -4.1175    2.9931   53.4449 H       1  ZINC000516003207    0.1300
     34 H34        -1.7160    3.4929   53.5944 H       1  ZINC000516003207    0.1400
     35 H35        -0.3135    3.4443   51.5770 H       1  ZINC000516003207    0.1300
     36 H36        -2.5718    2.2708   47.6014 H       1  ZINC000516003207    0.1800
     37 H37         2.5756    3.2978   46.7162 H       1  ZINC000516003207    0.0800
     38 H38         2.4999    4.4579   48.0641 H       1  ZINC000516003207    0.0900
     39 H39         2.8948    2.7512   48.3799 H       1  ZINC000516003207    0.0900
     40 H40        -3.7282    2.3813   49.2195 H       1  ZINC000516003207    0.1500
     41 H41        -8.6805    4.4716   53.4996 H       1  ZINC000516003207    0.0800
     42 H42       -10.2565    3.5749   53.6219 H       1  ZINC000516003207    0.0800
     43 H43        -8.6243    4.1824   55.9328 H       1  ZINC000516003207    0.0700
     44 H44        -9.7028    2.7229   55.8516 H       1  ZINC000516003207    0.0800
     45 H45        -7.6079    1.5157   55.4547 H       1  ZINC000516003207    0.0700
     46 H46        -6.7943    3.0051   54.8048 H       1  ZINC000516003207    0.0900
@<TRIPOS>BOND
     1     1     2    1
     2     1    27    1
     3     1    28    1
     4     1    29    1
     5     2     3    1
     6     3     4    1
     7     3    23    1
     8     3     5    1
     9     5     6    1
    10     5    30    1
    11     5    31    1
    12     6     7    1
    13     6     8    1
    14     6    23    1
    15     8     9   am
    16     8    32    1
    17     9    10    2
    18     9    11    1
    19    11    22   ar
    20    11    12   ar
    21    12    13   ar
    22    12    33    1
    23    13    14   ar
    24    13    34    1
    25    14    15   ar
    26    14    35    1
    27    15    16    1
    28    15    22   ar
    29    16    21    1
    30    16    17    2
    31    17    18    1
    32    17    36    1
    33    18    19    1
    34    19    20    1
    35    19    21    2
    36    20    37    1
    37    20    38    1
    38    20    39    1
    39    22    40    1
    40    23    26    1
    41    23    24    1
    42    24    25    1
    43    24    41    1
    44    24    42    1
    45    25    26    1
    46    25    43    1
    47    25    44    1
    48    26    45    1
    49    26    46    1
@<TRIPOS>SUBSTRUCTURE
     1 ZINC000516003207        1 TEMP              0 ****  ****    0 ROOT


##########                                Name:    ZINC000893400114
##########                DOCK_Rotatable_Bonds:                   6
##########                         Heavy_Atoms:                  27
##########                    Molecular_Weight:             381.472
##########                DOCK_Rotatable_Bonds:                   6
##########                       Formal_Charge:           0.0300001
##########                     HBond_Acceptors:                   8
##########                        HBond_Donors:                   1
##########                         Heavy_Atoms:                  27
##########                          Grid_Score:          -25.751101
##########                     Grid_vdw_energy:          -23.970499
##########                      Grid_es_energy:           -1.780602
##########           Internal_energy_repulsive:           82.090569

@<TRIPOS>MOLECULE
ZINC000893400114
 58 61 1 0 0
SMALL
USER_CHARGES


@<TRIPOS>ATOM
      1 O1         -8.7313    2.7981   55.1058 O.2     1  ZINC000893400114   -0.5600
      2 C2         -7.9313    2.6450   54.2030 C.2     1  ZINC000893400114    0.7100
      3 N3         -6.7294    3.2523   54.2576 N.am    1  ZINC000893400114   -0.7300
      4 C4         -6.3890    4.1015   55.4019 C.3     1  ZINC000893400114    0.1400
      5 H5         -7.2841    4.3463   55.9736 H       1  ZINC000893400114    0.1200
      6 C6         -5.6807    5.3913   54.9268 C.3     1  ZINC000893400114   -0.1400
      7 C7         -4.1923    4.9941   55.0427 C.3     1  ZINC000893400114    0.1000
      8 N8         -4.1464    3.9415   56.0643 N.am    1  ZINC000893400114   -0.6200
      9 C9         -2.9283    3.5154   56.7580 C.3     1  ZINC000893400114    0.1600
     10 C10        -2.2449    2.4030   55.9569 C.3     1  ZINC000893400114   -0.1700
     11 C11        -0.9337    2.0191   56.6476 C.3     1  ZINC000893400114    0.0700
     12 O12        -0.1002    3.1744   56.7603 O.3     1  ZINC000893400114   -0.3800
     13 C13        -0.6679    4.2298   57.5388 C.3     1  ZINC000893400114    0.0700
     14 C14        -1.9685    4.7025   56.8839 C.3     1  ZINC000893400114   -0.1700
     15 C15        -5.3680    3.4173   56.2839 C.2     1  ZINC000893400114    0.5100
     16 O16        -5.6109    2.5280   57.0720 O.2     1  ZINC000893400114   -0.4900
     17 N17        -8.2445    1.8638   53.1503 N.am    1  ZINC000893400114   -0.6300
     18 C18        -7.2905    1.6589   52.0488 C.3     1  ZINC000893400114    0.0800
     19 C19        -7.1613    0.1526   51.7951 C.3     1  ZINC000893400114    0.0500
     20 O20        -8.4642   -0.4086   51.6192 O.3     1  ZINC000893400114   -0.3800
     21 C21        -9.3108   -0.2933   52.7655 C.3     1  ZINC000893400114    0.0600
     22 C22        -9.5480    1.1857   53.0715 C.3     1  ZINC000893400114    0.1400
     23 H23       -10.1417    1.6347   52.2753 H       1  ZINC000893400114    0.0800
     24 C24       -10.2856    1.3240   54.4049 C.3     1  ZINC000893400114   -0.1200
     25 C25       -11.5086    0.4047   54.4090 C.3     1  ZINC000893400114    0.0700
     26 H26       -11.1968   -0.6262   54.2414 H       1  ZINC000893400114    0.0800
     27 C27       -12.4947    0.8398   53.3037 C.3     1  ZINC000893400114   -0.1500
     28 C28       -13.8716    0.6456   53.9953 C.3     1  ZINC000893400114   -0.1600
     29 C29       -13.5204    1.0143   55.4587 C.3     1  ZINC000893400114    0.0500
     30 O30       -12.1899    0.5082   55.6647 O.3     1  ZINC000893400114   -0.3800
     31 H31        -6.0896    3.1269   53.5393 H       1  ZINC000893400114    0.4000
     32 H32        -5.9433    5.6230   53.8945 H       1  ZINC000893400114    0.1000
     33 H33        -5.9133    6.2289   55.5843 H       1  ZINC000893400114    0.1000
     34 H34        -3.8288    4.6106   54.0894 H       1  ZINC000893400114    0.0700
     35 H35        -3.5966    5.8511   55.3571 H       1  ZINC000893400114    0.0800
     36 H36        -3.1844    3.1467   57.7513 H       1  ZINC000893400114    0.0900
     37 H37        -2.9000    1.5330   55.9097 H       1  ZINC000893400114    0.0800
     38 H38        -2.0349    2.7572   54.9477 H       1  ZINC000893400114    0.0900
     39 H39        -1.1478    1.6271   57.6419 H       1  ZINC000893400114    0.0500
     40 H40        -0.4220    1.2578   56.0589 H       1  ZINC000893400114    0.1000
     41 H41        -0.8785    3.8667   58.5446 H       1  ZINC000893400114    0.0500
     42 H42         0.0352    5.0609   57.5920 H       1  ZINC000893400114    0.1000
     43 H43        -1.7528    5.1031   55.8933 H       1  ZINC000893400114    0.0900
     44 H44        -2.4257    5.4770   57.4994 H       1  ZINC000893400114    0.0700
     45 H45        -7.6574    2.1527   51.1489 H       1  ZINC000893400114    0.0800
     46 H46        -6.3190    2.0697   52.3234 H       1  ZINC000893400114    0.0800
     47 H47        -6.5680   -0.0155   50.8963 H       1  ZINC000893400114    0.1100
     48 H48        -6.6735   -0.3196   52.6478 H       1  ZINC000893400114    0.0500
     49 H49       -10.2640   -0.7823   52.5647 H       1  ZINC000893400114    0.1300
     50 H50        -8.8309   -0.7672   53.6217 H       1  ZINC000893400114    0.0500
     51 H51        -9.6182    1.0445   55.2200 H       1  ZINC000893400114    0.0800
     52 H52       -10.6072    2.3572   54.5367 H       1  ZINC000893400114    0.1100
     53 H53       -12.3395    1.8847   53.0349 H       1  ZINC000893400114    0.0800
     54 H54       -12.4057    0.1957   52.4289 H       1  ZINC000893400114    0.0800
     55 H55       -14.6165    1.3282   53.5862 H       1  ZINC000893400114    0.0800
     56 H56       -14.2064   -0.3890   53.9204 H       1  ZINC000893400114    0.0800
     57 H57       -13.5391    2.0961   55.5912 H       1  ZINC000893400114    0.0600
     58 H58       -14.2171    0.5360   56.1471 H       1  ZINC000893400114    0.0800
@<TRIPOS>BOND
     1     1     2    2
     2     2     3   am
     3     2    17   am
     4     3     4    1
     5     3    31    1
     6     4     5    1
     7     4    15    1
     8     4     6    1
     9     6     7    1
    10     6    32    1
    11     6    33    1
    12     7     8    1
    13     7    34    1
    14     7    35    1
    15     8     9    1
    16     8    15   am
    17     9    14    1
    18     9    10    1
    19     9    36    1
    20    10    11    1
    21    10    37    1
    22    10    38    1
    23    11    12    1
    24    11    39    1
    25    11    40    1
    26    12    13    1
    27    13    14    1
    28    13    41    1
    29    13    42    1
    30    14    43    1
    31    14    44    1
    32    15    16    2
    33    17    22    1
    34    17    18    1
    35    18    19    1
    36    18    45    1
    37    18    46    1
    38    19    20    1
    39    19    47    1
    40    19    48    1
    41    20    21    1
    42    21    22    1
    43    21    49    1
    44    21    50    1
    45    22    23    1
    46    22    24    1
    47    24    25    1
    48    24    51    1
    49    24    52    1
    50    25    26    1
    51    25    30    1
    52    25    27    1
    53    27    28    1
    54    27    53    1
    55    27    54    1
    56    28    29    1
    57    28    55    1
    58    28    56    1
    59    29    30    1
    60    29    57    1
    61    29    58    1
@<TRIPOS>SUBSTRUCTURE
     1 ZINC000893400114        1 TEMP              0 ****  ****    0 ROOT


##########                                Name:    ZINC000430767928
##########                DOCK_Rotatable_Bonds:                   4
##########                         Heavy_Atoms:                  25
##########                    Molecular_Weight:             358.505
##########                DOCK_Rotatable_Bonds:                   4
##########                       Formal_Charge:          -0.0100002
##########                     HBond_Acceptors:                   5
##########                        HBond_Donors:                   0
##########                         Heavy_Atoms:                  25
##########                          Grid_Score:          -25.732735
##########                     Grid_vdw_energy:          -25.184410
##########                      Grid_es_energy:           -0.548324
##########           Internal_energy_repulsive:           14.630941

@<TRIPOS>MOLECULE
ZINC000430767928
 51 55 1 0 0
SMALL
USER_CHARGES


@<TRIPOS>ATOM
      1 O1        -12.7196   -2.8663   56.7140 O.2     1  ZINC000430767928   -0.4600
      2 C2        -12.6217   -1.6727   56.9022 C.2     1  ZINC000430767928    0.5300
      3 C3        -12.7435   -0.5706   55.8776 C.3     1  ZINC000430767928    0.0400
      4 H4        -13.7665   -0.4282   55.5295 H       1  ZINC000430767928    0.1400
      5 C5        -11.7387   -0.7575   54.7222 C.3     1  ZINC000430767928   -0.1100
      6 C6        -11.4272    0.7050   54.3134 C.3     1  ZINC000430767928   -0.1000
      7 H7        -12.0439    1.0010   53.4647 H       1  ZINC000430767928    0.1000
      8 C8         -9.9438    0.8573   53.9708 C.3     1  ZINC000430767928   -0.0800
      9 C9         -9.6108   -0.0048   52.7514 C.3     1  ZINC000430767928   -0.1100
     10 C10        -8.1273    0.1476   52.4090 C.3     1  ZINC000430767928   -0.1200
     11 C11        -7.8245    1.6141   52.0948 C.3     1  ZINC000430767928   -0.1200
     12 C12        -8.1576    2.4762   53.3142 C.3     1  ZINC000430767928   -0.1200
     13 C13        -9.6410    2.3238   53.6566 C.3     1  ZINC000430767928   -0.1200
     14 C14       -11.7833    1.5487   55.5565 C.3     1  ZINC000430767928    0.1600
     15 N15       -12.2034    0.6093   56.6097 N.am    1  ZINC000430767928   -0.6400
     16 C16       -12.2798    0.2923   57.9062 C.2     1  ZINC000430767928    0.7400
     17 O17       -12.2401    1.1022   58.8115 O.2     1  ZINC000430767928   -0.5100
     18 N18       -12.3857   -1.0440   58.0751 N.am    1  ZINC000430767928   -0.5800
     19 C19       -12.2539   -1.7269   59.3645 C.3     1  ZINC000430767928    0.2600
     20 H20       -12.4262   -2.7948   59.2293 H       1  ZINC000430767928    0.1200
     21 C21       -10.8665   -1.5070   59.9099 C.2     1  ZINC000430767928   -0.2100
     22 C22        -9.7351   -1.8660   59.3013 C.2     1  ZINC000430767928   -0.1200
     23 C23        -8.5771   -1.5599   59.9951 C.2     1  ZINC000430767928   -0.1400
     24 C24        -8.7681   -0.9525   61.1673 C.2     1  ZINC000430767928   -0.2300
     25 S25       -10.4909   -0.7311   61.4431 S.3     1  ZINC000430767928    0.1700
     26 C26       -13.2832   -1.1646   60.3469 C.3     1  ZINC000430767928   -0.1700
     27 C27       -14.7612   -1.2926   59.9719 C.3     1  ZINC000430767928   -0.1700
     28 C28       -14.1758   -2.1649   61.0844 C.3     1  ZINC000430767928   -0.1600
     29 H29       -10.8378   -1.2630   55.0699 H       1  ZINC000430767928    0.0800
     30 H30       -12.1954   -1.3021   53.8957 H       1  ZINC000430767928    0.1000
     31 H31        -9.3401    0.5353   54.8193 H       1  ZINC000430767928    0.0700
     32 H32        -9.8265   -1.0495   52.9753 H       1  ZINC000430767928    0.0600
     33 H33       -10.2145    0.3173   51.9030 H       1  ZINC000430767928    0.0700
     34 H34        -7.5237   -0.1744   53.2575 H       1  ZINC000430767928    0.0600
     35 H35        -7.8901   -0.4665   51.5403 H       1  ZINC000430767928    0.0600
     36 H36        -6.7678    1.7227   51.8508 H       1  ZINC000430767928    0.0600
     37 H37        -8.4283    1.9361   51.2464 H       1  ZINC000430767928    0.0600
     38 H38        -7.5539    2.1542   54.1627 H       1  ZINC000430767928    0.0600
     39 H39        -7.9419    3.5209   53.0904 H       1  ZINC000430767928    0.0600
     40 H40       -10.2448    2.6458   52.8082 H       1  ZINC000430767928    0.0700
     41 H41        -9.8782    2.9379   54.5254 H       1  ZINC000430767928    0.0600
     42 H42       -10.9132    2.1187   55.8824 H       1  ZINC000430767928    0.0900
     43 H43       -12.6073    2.2239   55.3257 H       1  ZINC000430767928    0.0800
     44 H44        -9.7235   -2.3582   58.3401 H       1  ZINC000430767928    0.1400
     45 H45        -7.5936   -1.7954   59.6162 H       1  ZINC000430767928    0.1400
     46 H46        -7.9844   -0.6412   61.8421 H       1  ZINC000430767928    0.1600
     47 H47       -12.9767   -0.2695   60.8880 H       1  ZINC000430767928    0.1200
     48 H48       -15.4271   -0.4814   60.2662 H       1  ZINC000430767928    0.1000
     49 H49       -15.0000   -1.7773   59.0254 H       1  ZINC000430767928    0.1000
     50 H50       -14.0297   -3.2235   60.8696 H       1  ZINC000430767928    0.1000
     51 H51       -14.4568   -1.9275   62.1105 H       1  ZINC000430767928    0.1000
@<TRIPOS>BOND
     1     1     2    2
     2     2    18   am
     3     2     3    1
     4     3     4    1
     5     3    15    1
     6     3     5    1
     7     5     6    1
     8     5    29    1
     9     5    30    1
    10     6     7    1
    11     6     8    1
    12     6    14    1
    13     8    13    1
    14     8     9    1
    15     8    31    1
    16     9    10    1
    17     9    32    1
    18     9    33    1
    19    10    11    1
    20    10    34    1
    21    10    35    1
    22    11    12    1
    23    11    36    1
    24    11    37    1
    25    12    13    1
    26    12    38    1
    27    12    39    1
    28    13    40    1
    29    13    41    1
    30    14    15    1
    31    14    42    1
    32    14    43    1
    33    15    16   am
    34    16    17    2
    35    16    18   am
    36    18    19    1
    37    19    20    1
    38    19    21    1
    39    19    26    1
    40    21    25    1
    41    21    22    2
    42    22    23    1
    43    22    44    1
    44    23    24    2
    45    23    45    1
    46    24    25    1
    47    24    46    1
    48    26    28    1
    49    26    27    1
    50    26    47    1
    51    27    28    1
    52    27    48    1
    53    27    49    1
    54    28    50    1
    55    28    51    1
@<TRIPOS>SUBSTRUCTURE
     1 ZINC000430767928        1 TEMP              0 ****  ****    0 ROOT


##########                                Name:    ZINC001060733018
##########                DOCK_Rotatable_Bonds:                   7
##########                         Heavy_Atoms:                  24
##########                    Molecular_Weight:             342.429
##########                DOCK_Rotatable_Bonds:                   7
##########                       Formal_Charge:           0.0200001
##########                     HBond_Acceptors:                   6
##########                        HBond_Donors:                   2
##########                         Heavy_Atoms:                  24
##########                          Grid_Score:          -25.707157
##########                     Grid_vdw_energy:          -24.237539
##########                      Grid_es_energy:           -1.469618
##########           Internal_energy_repulsive:            6.183817

@<TRIPOS>MOLECULE
ZINC001060733018
 52 54 1 0 0
SMALL
USER_CHARGES


@<TRIPOS>ATOM
      1 O1         -8.4150   -0.5808   64.0857 O.2     1  ZINC001060733018   -0.5000
      2 C2         -8.2595    0.5466   63.6668 C.2     1  ZINC001060733018    0.4700
      3 N3         -9.0254    1.0013   62.6552 N.am    1  ZINC001060733018   -0.7100
      4 C4        -10.0429    0.1321   62.0589 C.3     1  ZINC001060733018    0.1200
      5 C5        -10.2154    0.4883   60.5811 C.3     1  ZINC001060733018   -0.1000
      6 H6        -10.4264    1.5535   60.4863 H       1  ZINC001060733018    0.0800
      7 C7         -8.9297    0.1535   59.8223 C.3     1  ZINC001060733018   -0.1100
      8 C8         -9.1023    0.5098   58.3443 C.3     1  ZINC001060733018   -0.1300
      9 C9        -10.2645   -0.2945   57.7582 C.3     1  ZINC001060733018    0.1400
     10 H10       -10.0535   -1.3597   57.8530 H       1  ZINC001060733018    0.0900
     11 N11       -10.4297    0.0466   56.3431 N.am    1  ZINC001060733018   -0.7300
     12 C12       -11.0212   -0.8266   55.5041 C.2     1  ZINC001060733018    0.5200
     13 O13       -11.4181   -1.8942   55.9208 O.2     1  ZINC001060733018   -0.5400
     14 C14       -11.1895   -0.4765   54.0480 C.3     1  ZINC001060733018   -0.1000
     15 H15       -11.7167   -1.2832   53.5388 H       1  ZINC001060733018    0.1000
     16 C16        -9.8140   -0.2823   53.4080 C.3     1  ZINC001060733018   -0.1100
     17 C17        -9.9728    0.0006   51.9134 C.3     1  ZINC001060733018   -0.1200
     18 C18       -10.7413    1.3116   51.7211 C.3     1  ZINC001060733018   -0.0800
     19 C19       -12.0865    1.2084   52.4459 C.3     1  ZINC001060733018   -0.1300
     20 C20       -13.2854    0.6963   51.6481 C.3     1  ZINC001060733018   -0.1700
     21 C21       -13.1946    2.1753   52.0304 C.3     1  ZINC001060733018   -0.1700
     22 C22       -11.9971    0.8192   53.9244 C.3     1  ZINC001060733018   -0.0600
     23 C23       -11.5502    0.0402   58.5171 C.3     1  ZINC001060733018   -0.1200
     24 C24       -11.3776   -0.3160   59.9950 C.3     1  ZINC001060733018   -0.1100
     25 C25        -7.2141    1.4413   64.2812 C.3     1  ZINC001060733018    0.2600
     26 F26        -7.6268    2.7746   64.1854 F       1  ZINC001060733018   -0.1700
     27 F27        -7.0425    1.1019   65.6276 F       1  ZINC001060733018   -0.1900
     28 H28        -8.9029    1.9039   62.3219 H       1  ZINC001060733018    0.4100
     29 H29        -9.7295   -0.9081   62.1478 H       1  ZINC001060733018    0.0800
     30 H30       -10.9904    0.2718   62.5794 H       1  ZINC001060733018    0.0800
     31 H31        -8.1018    0.7265   60.2398 H       1  ZINC001060733018    0.0700
     32 H32        -8.7187   -0.9116   59.9171 H       1  ZINC001060733018    0.0700
     33 H33        -8.1864    0.2713   57.8038 H       1  ZINC001060733018    0.0700
     34 H34        -9.3133    1.5749   58.2496 H       1  ZINC001060733018    0.0600
     35 H35       -10.1134    0.9010   56.0100 H       1  ZINC001060733018    0.4000
     36 H36        -9.3083    0.5578   53.8840 H       1  ZINC001060733018    0.0700
     37 H37        -9.2206   -1.1865   53.5434 H       1  ZINC001060733018    0.0700
     38 H38        -8.9884    0.0856   51.4531 H       1  ZINC001060733018    0.0700
     39 H39       -10.5234   -0.8154   51.4455 H       1  ZINC001060733018    0.0700
     40 H40       -10.1646    2.1374   52.1377 H       1  ZINC001060733018    0.0700
     41 H41       -10.9115    1.4826   50.6582 H       1  ZINC001060733018    0.0700
     42 H42       -13.1202    0.4355   50.6027 H       1  ZINC001060733018    0.0900
     43 H43       -14.0167    0.0840   52.1758 H       1  ZINC001060733018    0.0900
     44 H44       -13.8661    2.5359   52.8096 H       1  ZINC001060733018    0.0900
     45 H45       -12.9694    2.8877   51.2368 H       1  ZINC001060733018    0.0900
     46 H46       -12.9999    0.6638   54.3224 H       1  ZINC001060733018    0.0700
     47 H47       -11.5004    1.6136   54.4817 H       1  ZINC001060733018    0.0800
     48 H48       -12.3782   -0.5327   58.0995 H       1  ZINC001060733018    0.0700
     49 H49       -11.7612    1.1054   58.4222 H       1  ZINC001060733018    0.0700
     50 H50       -11.1667   -1.3811   60.0897 H       1  ZINC001060733018    0.0700
     51 H51       -12.2936   -0.0775   60.5356 H       1  ZINC001060733018    0.0700
     52 H52        -6.2701    1.3142   63.7513 H       1  ZINC001060733018    0.1400
@<TRIPOS>BOND
     1     1     2    2
     2     2     3   am
     3     2    25    1
     4     3     4    1
     5     3    28    1
     6     4     5    1
     7     4    29    1
     8     4    30    1
     9     5     6    1
    10     5    24    1
    11     5     7    1
    12     7     8    1
    13     7    31    1
    14     7    32    1
    15     8     9    1
    16     8    33    1
    17     8    34    1
    18     9    10    1
    19     9    11    1
    20     9    23    1
    21    11    12   am
    22    11    35    1
    23    12    13    2
    24    12    14    1
    25    14    15    1
    26    14    22    1
    27    14    16    1
    28    16    17    1
    29    16    36    1
    30    16    37    1
    31    17    18    1
    32    17    38    1
    33    17    39    1
    34    18    19    1
    35    18    40    1
    36    18    41    1
    37    19    21    1
    38    19    20    1
    39    19    22    1
    40    20    21    1
    41    20    42    1
    42    20    43    1
    43    21    44    1
    44    21    45    1
    45    22    46    1
    46    22    47    1
    47    23    24    1
    48    23    48    1
    49    23    49    1
    50    24    50    1
    51    24    51    1
    52    25    26    1
    53    25    27    1
    54    25    52    1
@<TRIPOS>SUBSTRUCTURE
     1 ZINC001060733018        1 TEMP              0 ****  ****    0 ROOT


##########                                Name:    ZINC000001174632
##########                DOCK_Rotatable_Bonds:                   6
##########                         Heavy_Atoms:                  29
##########                    Molecular_Weight:             385.419
##########                DOCK_Rotatable_Bonds:                   6
##########                       Formal_Charge:           0.0400005
##########                     HBond_Acceptors:                   5
##########                        HBond_Donors:                   1
##########                         Heavy_Atoms:                  29
##########                          Grid_Score:          -25.706367
##########                     Grid_vdw_energy:          -23.341822
##########                      Grid_es_energy:           -2.364545
##########           Internal_energy_repulsive:           13.693643

@<TRIPOS>MOLECULE
ZINC000001174632
 48 51 1 0 0
SMALL
USER_CHARGES


@<TRIPOS>ATOM
      1 C1         -7.7957   -1.0247   59.8800 C.3     1  ZINC000001174632    0.0400
      2 O2         -9.1371   -1.5274   60.1164 O.3     1  ZINC000001174632   -0.3500
      3 C3         -9.9090   -0.8315   60.9744 C.2     1  ZINC000001174632    0.5200
      4 O4        -11.0095   -1.2486   61.2770 O.2     1  ZINC000001174632   -0.5200
      5 C5         -9.4183    0.4352   61.5456 C.ar    1  ZINC000001174632   -0.2000
      6 C6         -8.5097    0.4226   62.6066 C.ar    1  ZINC000001174632   -0.0200
      7 C7         -8.0543    1.6109   63.1359 C.ar    1  ZINC000001174632   -0.1800
      8 C8         -8.4928    2.8205   62.6216 C.ar    1  ZINC000001174632   -0.0300
      9 C9         -9.3907    2.8502   61.5738 C.ar    1  ZINC000001174632   -0.1900
     10 C10        -9.8569    1.6630   61.0228 C.ar    1  ZINC000001174632    0.2600
     11 N11       -10.7600    1.6901   59.9683 N.pl3   1  ZINC000001174632   -0.6500
     12 C12       -10.3252    1.4666   58.6873 C.2     1  ZINC000001174632    0.2300
     13 C13       -10.8709    0.5545   57.8045 C.2     1  ZINC000001174632   -0.1800
     14 C14       -12.0166   -0.3403   58.0812 C.ar    1  ZINC000001174632   -0.0600
     15 C15       -13.3098    0.1798   58.1505 C.ar    1  ZINC000001174632   -0.0600
     16 C16       -14.3749   -0.6575   58.4087 C.ar    1  ZINC000001174632   -0.1500
     17 C17       -14.1619   -2.0158   58.5999 C.ar    1  ZINC000001174632    0.1400
     18 O18       -15.2145   -2.8378   58.8541 O.3     1  ZINC000001174632   -0.3200
     19 C19       -15.6609   -3.6706   57.7821 C.3     1  ZINC000001174632    0.0300
     20 C20       -12.8772   -2.5371   58.5317 C.ar    1  ZINC000001174632   -0.2100
     21 C21       -11.8075   -1.7076   58.2679 C.ar    1  ZINC000001174632   -0.0500
     22 C22       -10.1201    0.6253   56.5446 C.2     1  ZINC000001174632    0.4500
     23 O23       -10.3226   -0.0346   55.5441 O.2     1  ZINC000001174632   -0.4100
     24 C24        -9.0639    1.6593   56.7248 C.ar    1  ZINC000001174632   -0.1600
     25 C25        -8.0756    2.1462   55.8903 C.ar    1  ZINC000001174632   -0.0500
     26 C26        -7.2115    3.1380   56.3440 C.ar    1  ZINC000001174632   -0.1100
     27 C27        -7.3375    3.6362   57.6227 C.ar    1  ZINC000001174632   -0.0900
     28 C28        -8.3276    3.1540   58.4705 C.ar    1  ZINC000001174632   -0.0800
     29 C29        -9.1992    2.1699   58.0279 C.ar    1  ZINC000001174632   -0.0600
     30 H30        -7.2442   -1.0048   60.8200 H       1  ZINC000001174632    0.0700
     31 H31        -7.2832   -1.6757   59.1718 H       1  ZINC000001174632    0.1100
     32 H32        -7.8525   -0.0160   59.4707 H       1  ZINC000001174632    0.0700
     33 H33        -8.1647   -0.5172   63.0117 H       1  ZINC000001174632    0.1400
     34 H34        -7.3520    1.5992   63.9565 H       1  ZINC000001174632    0.1300
     35 H35        -8.1299    3.7460   63.0435 H       1  ZINC000001174632    0.1300
     36 H36        -9.7282    3.7971   61.1791 H       1  ZINC000001174632    0.1300
     37 H37       -11.6985    1.8670   60.1380 H       1  ZINC000001174632    0.4300
     38 H38       -13.4763    1.2366   58.0025 H       1  ZINC000001174632    0.1300
     39 H39       -15.3759   -0.2558   58.4625 H       1  ZINC000001174632    0.1300
     40 H40       -15.9715   -3.0479   56.9433 H       1  ZINC000001174632    0.0600
     41 H41       -14.8477   -4.3248   57.4675 H       1  ZINC000001174632    0.0600
     42 H42       -16.5038   -4.2746   58.1180 H       1  ZINC000001174632    0.1000
     43 H43       -12.7156   -3.5944   58.6814 H       1  ZINC000001174632    0.1300
     44 H44       -10.8083   -2.1139   58.2146 H       1  ZINC000001174632    0.1300
     45 H45        -7.9738    1.7574   54.8879 H       1  ZINC000001174632    0.1400
     46 H46        -6.4392    3.5186   55.6919 H       1  ZINC000001174632    0.1400
     47 H47        -6.6627    4.4054   57.9681 H       1  ZINC000001174632    0.1400
     48 H48        -8.4213    3.5484   59.4715 H       1  ZINC000001174632    0.1300
@<TRIPOS>BOND
     1     1     2    1
     2     1    30    1
     3     1    31    1
     4     1    32    1
     5     2     3    1
     6     3     4    2
     7     3     5    1
     8     5    10   ar
     9     5     6   ar
    10     6     7   ar
    11     6    33    1
    12     7     8   ar
    13     7    34    1
    14     8     9   ar
    15     8    35    1
    16     9    10   ar
    17     9    36    1
    18    10    11    1
    19    11    12    1
    20    11    37    1
    21    12    29    1
    22    12    13    2
    23    13    14    1
    24    13    22    1
    25    14    21   ar
    26    14    15   ar
    27    15    16   ar
    28    15    38    1
    29    16    17   ar
    30    16    39    1
    31    17    18    1
    32    17    20   ar
    33    18    19    1
    34    19    40    1
    35    19    41    1
    36    19    42    1
    37    20    21   ar
    38    20    43    1
    39    21    44    1
    40    22    23    2
    41    22    24    1
    42    24    29   ar
    43    24    25   ar
    44    25    26   ar
    45    25    45    1
    46    26    27   ar
    47    26    46    1
    48    27    28   ar
    49    27    47    1
    50    28    29   ar
    51    28    48    1
@<TRIPOS>SUBSTRUCTURE
     1 ZINC000001174632        1 TEMP              0 ****  ****    0 ROOT


##########                                Name:    ZINC000986832075
##########                DOCK_Rotatable_Bonds:                   7
##########                         Heavy_Atoms:                  25
##########                    Molecular_Weight:             347.433
##########                DOCK_Rotatable_Bonds:                   7
##########                       Formal_Charge:          -0.0200006
##########                     HBond_Acceptors:                   6
##########                        HBond_Donors:                   1
##########                         Heavy_Atoms:                  25
##########                          Grid_Score:          -25.659622
##########                     Grid_vdw_energy:          -25.449701
##########                      Grid_es_energy:           -0.209921
##########           Internal_energy_repulsive:           30.372774

@<TRIPOS>MOLECULE
ZINC000986832075
 51 53 1 0 0
SMALL
USER_CHARGES


@<TRIPOS>ATOM
      1 C1         -8.6570   -0.0043   62.1350 C.3     1  ZINC000986832075   -0.1700
      2 C2         -9.5774    0.3809   60.9750 C.3     1  ZINC000986832075    0.1500
      3 H3        -10.3031    1.1189   61.3167 H       1  ZINC000986832075    0.0900
      4 N4         -8.7790    0.9490   59.8860 N.am    1  ZINC000986832075   -0.7200
      5 C5         -8.7840    2.2792   59.6697 C.2     1  ZINC000986832075    0.5600
      6 O6         -9.4497    3.0077   60.3789 O.2     1  ZINC000986832075   -0.5100
      7 C7         -7.9787    2.8528   58.5684 C.ar    1  ZINC000986832075   -0.1300
      8 C8         -7.7158    4.2252   58.5091 C.ar    1  ZINC000986832075   -0.1100
      9 C9         -6.9599    4.7181   57.4638 C.ar    1  ZINC000986832075    0.0900
     10 N10        -6.4886    3.9159   56.5298 N.ar    1  ZINC000986832075   -0.4400
     11 C11        -6.7109    2.6174   56.5448 C.ar    1  ZINC000986832075    0.0700
     12 C12        -7.4535    2.0357   57.5589 C.ar    1  ZINC000986832075    0.1100
     13 F13        -7.6776    0.7035   57.5680 F       1  ZINC000986832075   -0.1000
     14 C14       -10.3131   -0.8631   60.4728 C.3     1  ZINC000986832075   -0.1000
     15 C15       -11.7048   -0.9229   61.1066 C.3     1  ZINC000986832075   -0.1300
     16 C16       -12.4254   -2.1875   60.6285 C.3     1  ZINC000986832075    0.1100
     17 N17       -12.4302   -2.2021   59.1594 N.am    1  ZINC000986832075   -0.6100
     18 C18       -13.5843   -2.3435   58.4779 C.2     1  ZINC000986832075    0.5200
     19 O19       -14.6321   -2.4601   59.0773 O.2     1  ZINC000986832075   -0.5300
     20 C20       -13.5728   -2.3565   56.9710 C.3     1  ZINC000986832075   -0.0800
     21 H21       -12.7174   -2.9332   56.6191 H       1  ZINC000986832075    0.0900
     22 C22       -13.4701   -0.9218   56.4493 C.3     1  ZINC000986832075   -0.1400
     23 C23       -14.8647   -2.9949   56.4566 C.3     1  ZINC000986832075   -0.1400
     24 C24       -14.7697   -3.8737   55.2076 C.3     1  ZINC000986832075   -0.1800
     25 C25       -14.9988   -4.5142   56.5781 C.3     1  ZINC000986832075   -0.1700
     26 C26       -11.1530   -2.0594   58.4473 C.3     1  ZINC000986832075    0.1000
     27 C27       -10.4468   -0.7963   58.9498 C.3     1  ZINC000986832075   -0.1300
     28 H28        -8.1330    0.8819   62.4928 H       1  ZINC000986832075    0.0600
     29 H29        -9.2512   -0.4270   62.9452 H       1  ZINC000986832075    0.0700
     30 H30        -7.9314   -0.7425   61.7933 H       1  ZINC000986832075    0.0600
     31 H31        -8.2466    0.3676   59.3206 H       1  ZINC000986832075    0.4000
     32 H32        -8.0984    4.8897   59.2696 H       1  ZINC000986832075    0.1500
     33 H33        -6.7521    5.7766   57.4105 H       1  ZINC000986832075    0.1700
     34 H34        -6.3054    1.9980   55.7584 H       1  ZINC000986832075    0.1800
     35 H35        -9.7499   -1.7545   60.7491 H       1  ZINC000986832075    0.0800
     36 H36       -11.6095   -0.9469   62.1922 H       1  ZINC000986832075    0.0700
     37 H37       -12.2775   -0.0440   60.8105 H       1  ZINC000986832075    0.0800
     38 H38       -11.9029   -3.0686   61.0010 H       1  ZINC000986832075    0.0700
     39 H39       -13.4510   -2.1852   60.9973 H       1  ZINC000986832075    0.0900
     40 H40       -14.2765   -0.3228   56.8725 H       1  ZINC000986832075    0.0600
     41 H41       -12.5099   -0.4968   56.7415 H       1  ZINC000986832075    0.0600
     42 H42       -13.5510   -0.9238   55.3623 H       1  ZINC000986832075    0.0700
     43 H43       -15.7676   -2.3980   56.5850 H       1  ZINC000986832075    0.1100
     44 H44       -15.6103   -3.8548   54.5140 H       1  ZINC000986832075    0.1000
     45 H45       -13.7870   -3.9969   54.7524 H       1  ZINC000986832075    0.0900
     46 H46       -14.1668   -5.0588   57.0245 H       1  ZINC000986832075    0.0900
     47 H47       -15.9902   -4.9168   56.7860 H       1  ZINC000986832075    0.1000
     48 H48       -10.5268   -2.9300   58.6418 H       1  ZINC000986832075    0.0700
     49 H49       -11.3392   -1.9725   57.3767 H       1  ZINC000986832075    0.0900
     50 H50       -11.0313    0.0815   58.6741 H       1  ZINC000986832075    0.0800
     51 H51        -9.4560   -0.7301   58.5002 H       1  ZINC000986832075    0.0800
@<TRIPOS>BOND
     1     1     2    1
     2     1    28    1
     3     1    29    1
     4     1    30    1
     5     2     3    1
     6     2     4    1
     7     2    14    1
     8     4     5   am
     9     4    31    1
    10     5     6    2
    11     5     7    1
    12     7    12   ar
    13     7     8   ar
    14     8     9   ar
    15     8    32    1
    16     9    10   ar
    17     9    33    1
    18    10    11   ar
    19    11    12   ar
    20    11    34    1
    21    12    13    1
    22    14    27    1
    23    14    15    1
    24    14    35    1
    25    15    16    1
    26    15    36    1
    27    15    37    1
    28    16    17    1
    29    16    38    1
    30    16    39    1
    31    17    18   am
    32    17    26    1
    33    18    19    2
    34    18    20    1
    35    20    21    1
    36    20    22    1
    37    20    23    1
    38    22    40    1
    39    22    41    1
    40    22    42    1
    41    23    25    1
    42    23    24    1
    43    23    43    1
    44    24    25    1
    45    24    44    1
    46    24    45    1
    47    25    46    1
    48    25    47    1
    49    26    27    1
    50    26    48    1
    51    26    49    1
    52    27    50    1
    53    27    51    1
@<TRIPOS>SUBSTRUCTURE
     1 ZINC000986832075        1 TEMP              0 ****  ****    0 ROOT


##########                                Name:    ZINC000609484313
##########                DOCK_Rotatable_Bonds:                  10
##########                         Heavy_Atoms:                  26
##########                    Molecular_Weight:             361.487
##########                DOCK_Rotatable_Bonds:                  10
##########                       Formal_Charge:          -0.0200004
##########                     HBond_Acceptors:                   7
##########                        HBond_Donors:                   1
##########                         Heavy_Atoms:                  26
##########                          Grid_Score:          -25.652748
##########                     Grid_vdw_energy:          -25.252766
##########                      Grid_es_energy:           -0.399983
##########           Internal_energy_repulsive:           28.243067

@<TRIPOS>MOLECULE
ZINC000609484313
 57 58 1 0 0
SMALL
USER_CHARGES


@<TRIPOS>ATOM
      1 C1        -15.5621   -4.5067   54.9358 C.3     1  ZINC000609484313   -0.1500
      2 C2        -15.1256   -3.8771   56.2602 C.3     1  ZINC000609484313   -0.1300
      3 C3        -13.9204   -2.9659   56.0189 C.3     1  ZINC000609484313   -0.1100
      4 C4        -13.4452   -2.3850   57.3522 C.3     1  ZINC000609484313   -0.1100
      5 C5        -12.0994   -1.6850   57.1529 C.3     1  ZINC000609484313    0.0800
      6 H6        -11.3000   -2.4259   57.1598 H       1  ZINC000609484313    0.1200
      7 C7        -12.1010   -0.9599   55.8319 C.2     1  ZINC000609484313    0.4900
      8 O8        -12.8676   -0.0386   55.6468 O.2     1  ZINC000609484313   -0.5000
      9 N9        -11.2504   -1.3353   54.8561 N.am    1  ZINC000609484313   -0.6300
     10 C10       -11.2507   -0.6629   53.6339 C.2     1  ZINC000609484313    0.2400
     11 N11       -10.2183   -0.4282   52.8671 N.2     1  ZINC000609484313   -0.3900
     12 O12       -10.5359    0.1778   51.8701 O.3     1  ZINC000609484313    0.1000
     13 C13       -11.8522    0.4320   51.8416 C.2     1  ZINC000609484313   -0.0200
     14 C14       -12.6049    1.1630   50.7598 C.3     1  ZINC000609484313   -0.0800
     15 C15       -12.3736   -0.1013   52.9698 C.2     1  ZINC000609484313   -0.2300
     16 N16       -11.8831   -0.7212   58.2403 N.3     1  ZINC000609484313   -0.5000
     17 C17       -10.6333    0.0257   58.0412 C.3     1  ZINC000609484313    0.0400
     18 C18       -10.4849    1.0713   59.1489 C.3     1  ZINC000609484313    0.0500
     19 N19       -10.4917    0.4004   60.4563 N.3     1  ZINC000609484313   -0.5100
     20 C20       -10.2753    1.3642   61.5437 C.3     1  ZINC000609484313    0.1800
     21 H21       -10.5122    2.3683   61.1918 H       1  ZINC000609484313    0.1200
     22 C22       -11.1462    1.0246   62.6809 C.1     1  ZINC000609484313    0.1700
     23 N23       -11.8183    0.7625   63.5584 N.1     1  ZINC000609484313   -0.4200
     24 C24        -8.8123    1.3116   61.9883 C.3     1  ZINC000609484313   -0.0800
     25 C25        -8.6201    2.2032   63.2167 C.3     1  ZINC000609484313   -0.1400
     26 C26        -8.4379   -0.1296   62.3406 C.3     1  ZINC000609484313   -0.1500
     27 C27       -11.7415   -0.3464   60.6554 C.3     1  ZINC000609484313    0.0500
     28 C28       -11.8898   -1.3921   59.5478 C.3     1  ZINC000609484313    0.0400
     29 H29       -15.8363   -3.7202   54.2327 H       1  ZINC000609484313    0.0500
     30 H30       -14.7405   -5.0924   54.5236 H       1  ZINC000609484313    0.0500
     31 H31       -16.4208   -5.1558   55.1077 H       1  ZINC000609484313    0.0500
     32 H32       -15.9472   -3.2914   56.6723 H       1  ZINC000609484313    0.0600
     33 H33       -14.8514   -4.6635   56.9634 H       1  ZINC000609484313    0.0600
     34 H34       -13.1139   -3.5424   55.5657 H       1  ZINC000609484313    0.0800
     35 H35       -14.2069   -2.1540   55.3504 H       1  ZINC000609484313    0.0600
     36 H36       -14.1784   -1.6657   57.7170 H       1  ZINC000609484313    0.0700
     37 H37       -13.3324   -3.1891   58.0793 H       1  ZINC000609484313    0.0800
     38 H38       -10.6381   -2.0728   55.0038 H       1  ZINC000609484313    0.4200
     39 H39       -11.9107    1.4681   49.9768 H       1  ZINC000609484313    0.0800
     40 H40       -13.3635    0.5046   50.3366 H       1  ZINC000609484313    0.0900
     41 H41       -13.0850    2.0451   51.1838 H       1  ZINC000609484313    0.0900
     42 H42       -13.4036   -0.0952   53.2942 H       1  ZINC000609484313    0.1900
     43 H43        -9.7889   -0.6627   58.0755 H       1  ZINC000609484313    0.0800
     44 H44       -10.6577    0.5237   57.0718 H       1  ZINC000609484313    0.0800
     45 H45        -9.5444    1.6070   59.0198 H       1  ZINC000609484313    0.0900
     46 H46       -11.3151    1.7758   59.0974 H       1  ZINC000609484313    0.0400
     47 H47        -8.1737    1.6654   61.1790 H       1  ZINC000609484313    0.0800
     48 H48        -9.2588    1.8493   64.0261 H       1  ZINC000609484313    0.0600
     49 H49        -7.5778    2.1656   63.5335 H       1  ZINC000609484313    0.0500
     50 H50        -8.8868    3.2298   62.9658 H       1  ZINC000609484313    0.0700
     51 H51        -7.4262   -0.1534   62.7453 H       1  ZINC000609484313    0.0700
     52 H52        -9.1358   -0.5150   63.0838 H       1  ZINC000609484313    0.0600
     53 H53        -8.4850   -0.7468   61.4434 H       1  ZINC000609484313    0.0500
     54 H54       -11.7171   -0.8444   61.6248 H       1  ZINC000609484313    0.0900
     55 H55       -12.5859    0.3420   60.6212 H       1  ZINC000609484313    0.0400
     56 H56       -12.8303   -1.9277   59.6769 H       1  ZINC000609484313    0.0800
     57 H57       -11.0596   -2.0966   59.5993 H       1  ZINC000609484313    0.0800
@<TRIPOS>BOND
     1     1     2    1
     2     1    29    1
     3     1    30    1
     4     1    31    1
     5     2     3    1
     6     2    32    1
     7     2    33    1
     8     3     4    1
     9     3    34    1
    10     3    35    1
    11     4     5    1
    12     4    36    1
    13     4    37    1
    14     5     6    1
    15     5     7    1
    16     5    16    1
    17     7     8    2
    18     7     9   am
    19     9    10    1
    20     9    38    1
    21    10    15    1
    22    10    11    2
    23    11    12    1
    24    12    13    1
    25    13    14    1
    26    13    15    2
    27    14    39    1
    28    14    40    1
    29    14    41    1
    30    15    42    1
    31    16    28    1
    32    16    17    1
    33    17    18    1
    34    17    43    1
    35    17    44    1
    36    18    19    1
    37    18    45    1
    38    18    46    1
    39    19    20    1
    40    19    27    1
    41    20    21    1
    42    20    22    1
    43    20    24    1
    44    22    23    3
    45    24    25    1
    46    24    26    1
    47    24    47    1
    48    25    48    1
    49    25    49    1
    50    25    50    1
    51    26    51    1
    52    26    52    1
    53    26    53    1
    54    27    28    1
    55    27    54    1
    56    27    55    1
    57    28    56    1
    58    28    57    1
@<TRIPOS>SUBSTRUCTURE
     1 ZINC000609484313        1 TEMP              0 ****  ****    0 ROOT


##########                                Name:    ZINC000971513996
##########                DOCK_Rotatable_Bonds:                   6
##########                         Heavy_Atoms:                  27
##########                    Molecular_Weight:             369.464
##########                DOCK_Rotatable_Bonds:                   6
##########                       Formal_Charge:          -0.0300002
##########                     HBond_Acceptors:                   6
##########                        HBond_Donors:                   1
##########                         Heavy_Atoms:                  27
##########                          Grid_Score:          -25.651627
##########                     Grid_vdw_energy:          -24.558966
##########                      Grid_es_energy:           -1.092662
##########           Internal_energy_repulsive:           22.906898

@<TRIPOS>MOLECULE
ZINC000971513996
 54 57 1 0 0
SMALL
USER_CHARGES


@<TRIPOS>ATOM
      1 C1         -9.3027    1.4621   54.7950 C.3     1  ZINC000971513996   -0.1600
      2 C2        -10.0422    0.6210   55.8374 C.3     1  ZINC000971513996   -0.1400
      3 C3         -9.4627    0.9033   57.2249 C.3     1  ZINC000971513996    0.0800
      4 H4         -8.3773    0.8086   57.1915 H       1  ZINC000971513996    0.0800
      5 O5         -9.8129    2.2293   57.6266 O.3     1  ZINC000971513996   -0.3600
      6 C6        -11.2210    2.4607   57.7028 C.3     1  ZINC000971513996    0.0200
      7 C7        -10.0231   -0.0858   58.2142 C.2     1  ZINC000971513996    0.5400
      8 O8        -11.0746   -0.6443   57.9838 O.2     1  ZINC000971513996   -0.5100
      9 N9         -9.3556   -0.3498   59.3549 N.am    1  ZINC000971513996   -0.6400
     10 C10        -8.1015    0.0941   59.9869 C.3     1  ZINC000971513996    0.1000
     11 C11        -8.7612   -0.1948   61.3490 C.3     1  ZINC000971513996   -0.1200
     12 H12        -8.0999   -0.6285   62.0993 H       1  ZINC000971513996    0.1100
     13 C13        -9.5585    1.0118   61.8504 C.3     1  ZINC000971513996   -0.1200
     14 C14       -10.8328    0.5210   62.5437 C.3     1  ZINC000971513996    0.1100
     15 N15       -11.6037   -0.2700   61.5808 N.am    1  ZINC000971513996   -0.6000
     16 C16       -12.8773    0.0717   61.3022 C.2     1  ZINC000971513996    0.5900
     17 O17       -13.3825    1.0336   61.8493 O.2     1  ZINC000971513996   -0.5200
     18 C18       -13.6562   -0.7181   60.3367 C.2     1  ZINC000971513996    0.0200
     19 C19       -13.9409   -0.3451   59.0617 C.2     1  ZINC000971513996   -0.1000
     20 C20       -14.7064   -1.3793   58.4706 C.ar    1  ZINC000971513996   -0.1100
     21 C21       -15.2745   -1.5509   57.2020 C.ar    1  ZINC000971513996   -0.0600
     22 C22       -15.9768   -2.6866   56.9206 C.ar    1  ZINC000971513996   -0.1200
     23 C23       -16.5868   -2.8681   55.5545 C.3     1  ZINC000971513996   -0.1100
     24 C24       -16.1342   -3.6773   57.8813 C.ar    1  ZINC000971513996   -0.0800
     25 C25       -15.5852   -3.5321   59.1359 C.ar    1  ZINC000971513996   -0.1300
     26 C26       -14.8650   -2.3824   59.4471 C.ar    1  ZINC000971513996    0.1100
     27 N27       -14.2099   -1.9602   60.5798 N.pl3   1  ZINC000971513996   -0.5800
     28 C28       -11.0041   -1.4229   60.9218 C.3     1  ZINC000971513996    0.0700
     29 C29        -9.5528   -1.2028   60.5291 C.3     1  ZINC000971513996    0.1300
     30 H30        -9.0233   -2.1499   60.4268 H       1  ZINC000971513996    0.1100
     31 H31        -9.6430    1.1855   53.7971 H       1  ZINC000971513996    0.0600
     32 H32        -9.5073    2.5185   54.9688 H       1  ZINC000971513996    0.0600
     33 H33        -8.2308    1.2814   54.8764 H       1  ZINC000971513996    0.0600
     34 H34       -11.1014    0.8783   55.8267 H       1  ZINC000971513996    0.0800
     35 H35        -9.9229   -0.4366   55.6021 H       1  ZINC000971513996    0.0800
     36 H36       -11.6556    2.3880   56.7058 H       1  ZINC000971513996    0.0400
     37 H37       -11.6772    1.7145   58.3532 H       1  ZINC000971513996    0.0500
     38 H38       -11.4042    3.4561   58.1073 H       1  ZINC000971513996    0.0900
     39 H39        -7.2516   -0.5528   59.7691 H       1  ZINC000971513996    0.0900
     40 H40        -7.8822    1.1495   59.8248 H       1  ZINC000971513996    0.0800
     41 H41        -8.9541    1.5789   62.5583 H       1  ZINC000971513996    0.0900
     42 H42        -9.8252    1.6481   61.0064 H       1  ZINC000971513996    0.0700
     43 H43       -10.5695   -0.0984   63.4011 H       1  ZINC000971513996    0.0800
     44 H44       -11.4236    1.3753   62.8744 H       1  ZINC000971513996    0.1000
     45 H45       -13.6377    0.5751   58.5845 H       1  ZINC000971513996    0.1500
     46 H46       -15.1575   -0.7861   56.4484 H       1  ZINC000971513996    0.1200
     47 H47       -15.8707   -3.3649   54.8999 H       1  ZINC000971513996    0.0700
     48 H48       -17.4872   -3.4769   55.6365 H       1  ZINC000971513996    0.0600
     49 H49       -16.8436   -1.8937   55.1389 H       1  ZINC000971513996    0.0600
     50 H50       -16.6929   -4.5701   57.6423 H       1  ZINC000971513996    0.1300
     51 H51       -15.7134   -4.3078   59.8763 H       1  ZINC000971513996    0.1200
     52 H52       -14.1476   -2.4530   61.4129 H       1  ZINC000971513996    0.4200
     53 H53       -11.0469   -2.2759   61.5989 H       1  ZINC000971513996    0.0800
     54 H54       -11.5833   -1.6573   60.0286 H       1  ZINC000971513996    0.1200
@<TRIPOS>BOND
     1     1     2    1
     2     1    31    1
     3     1    32    1
     4     1    33    1
     5     2     3    1
     6     2    34    1
     7     2    35    1
     8     3     4    1
     9     3     5    1
    10     3     7    1
    11     5     6    1
    12     6    36    1
    13     6    37    1
    14     6    38    1
    15     7     8    2
    16     7     9   am
    17     9    29    1
    18     9    10    1
    19    10    11    1
    20    10    39    1
    21    10    40    1
    22    11    12    1
    23    11    29    1
    24    11    13    1
    25    13    14    1
    26    13    41    1
    27    13    42    1
    28    14    15    1
    29    14    43    1
    30    14    44    1
    31    15    16   am
    32    15    28    1
    33    16    17    2
    34    16    18    1
    35    18    27    1
    36    18    19    2
    37    19    20    1
    38    19    45    1
    39    20    26   ar
    40    20    21   ar
    41    21    22   ar
    42    21    46    1
    43    22    23    1
    44    22    24   ar
    45    23    47    1
    46    23    48    1
    47    23    49    1
    48    24    25   ar
    49    24    50    1
    50    25    26   ar
    51    25    51    1
    52    26    27    1
    53    27    52    1
    54    28    29    1
    55    28    53    1
    56    28    54    1
    57    29    30    1
@<TRIPOS>SUBSTRUCTURE
     1 ZINC000971513996        1 TEMP              0 ****  ****    0 ROOT


##########                                Name:    ZINC000443394081
##########                DOCK_Rotatable_Bonds:                   8
##########                         Heavy_Atoms:                  27
##########                    Molecular_Weight:             389.878
##########                DOCK_Rotatable_Bonds:                   8
##########                       Formal_Charge:          -0.0300003
##########                     HBond_Acceptors:                   6
##########                        HBond_Donors:                   1
##########                         Heavy_Atoms:                  27
##########                          Grid_Score:          -25.605783
##########                     Grid_vdw_energy:          -24.113472
##########                      Grid_es_energy:           -1.492311
##########           Internal_energy_repulsive:           28.707235

@<TRIPOS>MOLECULE
ZINC000443394081
 51 53 1 0 0
SMALL
USER_CHARGES


@<TRIPOS>ATOM
      1 C1         -1.9861    2.4451   56.4496 C.3     1  ZINC000443394081    0.0200
      2 O2         -2.7617    3.4890   55.8572 O.3     1  ZINC000443394081   -0.3000
      3 C3         -4.0696    3.2177   55.6022 C.ar    1  ZINC000443394081    0.1000
      4 C4         -4.9247    2.9030   56.6400 C.ar    1  ZINC000443394081   -0.1200
      5 C5         -6.2686    2.6252   56.3745 C.ar    1  ZINC000443394081   -0.1300
      6 C6         -7.1868    2.2887   57.4800 C.2     1  ZINC000443394081    0.5700
      7 O7         -7.3374    1.1293   57.8138 O.2     1  ZINC000443394081   -0.4900
      8 N8         -7.8582    3.2667   58.1197 N.am    1  ZINC000443394081   -0.6100
      9 C9         -7.7702    4.7074   57.8196 C.3     1  ZINC000443394081    0.0900
     10 C10        -9.1039    5.3023   58.3364 C.3     1  ZINC000443394081   -0.1300
     11 C11        -9.3413    4.4654   59.6211 C.3     1  ZINC000443394081   -0.1000
     12 H12        -8.7787    4.8770   60.4590 H       1  ZINC000443394081    0.0900
     13 C13       -10.8329    4.3968   59.9545 C.3     1  ZINC000443394081   -0.1500
     14 C14        -8.8046    3.0730   59.2281 C.3     1  ZINC000443394081    0.1400
     15 H15        -8.2879    2.6220   60.0754 H       1  ZINC000443394081    0.0800
     16 C16        -9.9618    2.1748   58.7865 C.3     1  ZINC000443394081    0.0600
     17 O17       -10.4382    2.6048   57.5098 O.3     1  ZINC000443394081   -0.5400
     18 C18        -6.7407    2.6671   55.0607 C.ar    1  ZINC000443394081   -0.1000
     19 C19        -5.8821    2.9814   54.0294 C.ar    1  ZINC000443394081   -0.1800
     20 C20        -4.5489    3.2629   54.2935 C.ar    1  ZINC000443394081    0.1300
     21 O21        -3.7068    3.5720   53.2740 O.3     1  ZINC000443394081   -0.3000
     22 C22        -3.1116    2.4798   52.5704 C.3     1  ZINC000443394081    0.1000
     23 C23        -2.2353    3.0118   51.4658 C.ar    1  ZINC000443394081   -0.0800
     24 C24        -2.5749    2.7870   50.1452 C.ar    1  ZINC000443394081   -0.0800
     25 C25        -1.7709    3.2748   49.1316 C.ar    1  ZINC000443394081   -0.1100
     26 C26        -0.6270    3.9874   49.4384 C.ar    1  ZINC000443394081   -0.1000
     27 C27        -0.2862    4.2128   50.7591 C.ar    1  ZINC000443394081   -0.1100
     28 C28        -1.0934    3.7303   51.7735 C.ar    1  ZINC000443394081   -0.0300
     29 Cl29       -0.6662    4.0131   53.4321 Cl      1  ZINC000443394081   -0.0700
     30 H30        -0.9638    2.7923   56.5994 H       1  ZINC000443394081    0.1000
     31 H31        -2.4208    2.1701   57.4105 H       1  ZINC000443394081    0.0600
     32 H32        -1.9821    1.5768   55.7907 H       1  ZINC000443394081    0.0600
     33 H33        -4.5558    2.8713   57.6545 H       1  ZINC000443394081    0.1500
     34 H34        -6.9265    5.1537   58.3461 H       1  ZINC000443394081    0.0700
     35 H35        -7.6749    4.8660   56.7455 H       1  ZINC000443394081    0.0800
     36 H36        -8.9936    6.3603   58.5742 H       1  ZINC000443394081    0.0900
     37 H37        -9.9062    5.1471   57.6152 H       1  ZINC000443394081    0.0800
     38 H38       -11.3725    3.9554   59.1168 H       1  ZINC000443394081    0.0600
     39 H39       -10.9785    3.7838   60.8441 H       1  ZINC000443394081    0.0600
     40 H40       -11.2102    5.4023   60.1405 H       1  ZINC000443394081    0.0600
     41 H41        -9.6152    1.1438   58.7166 H       1  ZINC000443394081    0.0600
     42 H42       -10.7694    2.2380   59.5158 H       1  ZINC000443394081    0.0400
     43 H43       -11.1977    2.1028   57.1838 H       1  ZINC000443394081    0.3700
     44 H44        -7.7787    2.4528   54.8529 H       1  ZINC000443394081    0.1400
     45 H45        -6.2484    3.0130   53.0139 H       1  ZINC000443394081    0.1400
     46 H46        -2.5085    1.8889   53.2599 H       1  ZINC000443394081    0.0800
     47 H47        -3.8943    1.8530   52.1433 H       1  ZINC000443394081    0.0800
     48 H48        -3.4683    2.2297   49.9048 H       1  ZINC000443394081    0.1400
     49 H49        -2.0368    3.0989   48.0997 H       1  ZINC000443394081    0.1300
     50 H50         0.0010    4.3676   48.6464 H       1  ZINC000443394081    0.1300
     51 H51         0.6077    4.7697   50.9987 H       1  ZINC000443394081    0.1400
@<TRIPOS>BOND
     1     1     2    1
     2     1    30    1
     3     1    31    1
     4     1    32    1
     5     2     3    1
     6     3    20   ar
     7     3     4   ar
     8     4     5   ar
     9     4    33    1
    10     5     6    1
    11     5    18   ar
    12     6     7    2
    13     6     8   am
    14     8    14    1
    15     8     9    1
    16     9    10    1
    17     9    34    1
    18     9    35    1
    19    10    11    1
    20    10    36    1
    21    10    37    1
    22    11    12    1
    23    11    13    1
    24    11    14    1
    25    13    38    1
    26    13    39    1
    27    13    40    1
    28    14    15    1
    29    14    16    1
    30    16    17    1
    31    16    41    1
    32    16    42    1
    33    17    43    1
    34    18    19   ar
    35    18    44    1
    36    19    20   ar
    37    19    45    1
    38    20    21    1
    39    21    22    1
    40    22    23    1
    41    22    46    1
    42    22    47    1
    43    23    28   ar
    44    23    24   ar
    45    24    25   ar
    46    24    48    1
    47    25    26   ar
    48    25    49    1
    49    26    27   ar
    50    26    50    1
    51    27    28   ar
    52    27    51    1
    53    28    29    1
@<TRIPOS>SUBSTRUCTURE
     1 ZINC000443394081        1 TEMP              0 ****  ****    0 ROOT


##########                                Name:    ZINC000942661662
##########                DOCK_Rotatable_Bonds:                   6
##########                         Heavy_Atoms:                  25
##########                    Molecular_Weight:             343.426
##########                DOCK_Rotatable_Bonds:                   6
##########                       Formal_Charge:           0.0399997
##########                     HBond_Acceptors:                   6
##########                        HBond_Donors:                   1
##########                         Heavy_Atoms:                  25
##########                          Grid_Score:          -25.598743
##########                     Grid_vdw_energy:          -24.452961
##########                      Grid_es_energy:           -1.145782
##########           Internal_energy_repulsive:          110.628288

@<TRIPOS>MOLECULE
ZINC000942661662
 50 52 1 0 0
SMALL
USER_CHARGES


@<TRIPOS>ATOM
      1 C1        -14.0852   -0.2872   58.2406 C.3     1  ZINC000942661662   -0.1700
      2 C2        -13.0974   -0.0588   57.0948 C.3     1  ZINC000942661662    0.1000
      3 N3        -11.7415   -0.3791   57.5480 N.am    1  ZINC000942661662   -0.6000
      4 C4        -11.5326   -0.7810   58.8172 C.2     1  ZINC000942661662    0.6000
      5 O5        -12.4696   -0.8777   59.5866 O.2     1  ZINC000942661662   -0.5200
      6 C6        -10.1686   -1.1034   59.2731 C.2     1  ZINC000942661662   -0.2400
      7 C7         -9.3315   -0.3066   59.9980 C.2     1  ZINC000942661662    0.0700
      8 C8         -9.6415    1.0855   60.4848 C.3     1  ZINC000942661662   -0.0900
      9 O9         -8.1899   -0.9706   60.2032 O.3     1  ZINC000942661662   -0.1700
     10 C10        -8.2352   -2.1873   59.6386 C.2     1  ZINC000942661662   -0.0300
     11 C11        -9.4282   -2.3532   59.0470 C.2     1  ZINC000942661662   -0.1900
     12 C12       -10.6128   -0.2627   56.6212 C.3     1  ZINC000942661662    0.1400
     13 H13        -9.8740   -1.0418   56.8087 H       1  ZINC000942661662    0.1100
     14 C14        -9.9686    1.1464   56.7038 C.3     1  ZINC000942661662   -0.1400
     15 C15        -9.3432    1.3231   55.3040 C.3     1  ZINC000942661662    0.1000
     16 N16       -10.0507    0.4127   54.3918 N.am    1  ZINC000942661662   -0.6200
     17 C17        -9.7863    0.2532   53.0798 C.2     1  ZINC000942661662    0.6100
     18 O18       -10.4401   -0.5317   52.4185 O.2     1  ZINC000942661662   -0.5200
     19 C19        -8.7107    1.0258   52.4493 C.2     1  ZINC000942661662   -0.0600
     20 C20        -8.8283    2.2805   51.8902 C.2     1  ZINC000942661662   -0.0700
     21 C21       -10.0825    3.1123   51.8127 C.3     1  ZINC000942661662   -0.0900
     22 C22        -7.5643    2.6360   51.4090 C.2     1  ZINC000942661662   -0.2100
     23 C23        -6.7156    1.6149   51.6765 C.2     1  ZINC000942661662    0.0500
     24 C24        -5.2496    1.5797   51.3290 C.3     1  ZINC000942661662   -0.0900
     25 N25        -7.3985    0.6325   52.3134 N.pl3   1  ZINC000942661662   -0.5400
     26 C26       -11.0966   -0.2987   55.1500 C.3     1  ZINC000942661662    0.0900
     27 H27       -15.0941   -0.0489   57.9035 H       1  ZINC000942661662    0.0700
     28 H28       -14.0437   -1.3305   58.5536 H       1  ZINC000942661662    0.0600
     29 H29       -13.8217    0.3549   59.0810 H       1  ZINC000942661662    0.0600
     30 H30       -13.3609   -0.7010   56.2545 H       1  ZINC000942661662    0.0900
     31 H31       -13.1388    0.9845   56.7818 H       1  ZINC000942661662    0.0800
     32 H32       -10.0993    1.0314   61.4726 H       1  ZINC000942661662    0.0900
     33 H33        -8.7194    1.6638   60.5428 H       1  ZINC000942661662    0.0900
     34 H34       -10.3301    1.5680   59.7912 H       1  ZINC000942661662    0.1000
     35 H35        -7.4404   -2.9182   59.6611 H       1  ZINC000942661662    0.2100
     36 H36        -9.7713   -3.2240   58.5081 H       1  ZINC000942661662    0.1600
     37 H37       -10.7273    1.9074   56.8860 H       1  ZINC000942661662    0.1000
     38 H38        -9.1997    1.1742   57.4759 H       1  ZINC000942661662    0.0900
     39 H39        -9.4674    2.3531   54.9699 H       1  ZINC000942661662    0.0700
     40 H40        -8.2843    1.0667   55.3359 H       1  ZINC000942661662    0.0700
     41 H41       -10.1587    3.7385   52.7017 H       1  ZINC000942661662    0.0700
     42 H42       -10.0452    3.7442   50.9253 H       1  ZINC000942661662    0.0600
     43 H43       -10.9508    2.4560   51.7553 H       1  ZINC000942661662    0.0800
     44 H44        -7.3102    3.5604   50.9118 H       1  ZINC000942661662    0.1400
     45 H45        -4.6708    1.9970   52.1530 H       1  ZINC000942661662    0.0800
     46 H46        -4.9422    0.5486   51.1545 H       1  ZINC000942661662    0.0700
     47 H47        -5.0756    2.1681   50.4282 H       1  ZINC000942661662    0.0900
     48 H48        -7.0260   -0.2098   52.6177 H       1  ZINC000942661662    0.4100
     49 H49       -11.1827   -1.3284   54.8029 H       1  ZINC000942661662    0.0800
     50 H50       -12.0522    0.2163   55.0529 H       1  ZINC000942661662    0.1000
@<TRIPOS>BOND
     1     1     2    1
     2     1    27    1
     3     1    28    1
     4     1    29    1
     5     2     3    1
     6     2    30    1
     7     2    31    1
     8     3     4   am
     9     3    12    1
    10     4     5    2
    11     4     6    1
    12     6    11    1
    13     6     7    2
    14     7     8    1
    15     7     9    1
    16     8    32    1
    17     8    33    1
    18     8    34    1
    19     9    10    1
    20    10    11    2
    21    10    35    1
    22    11    36    1
    23    12    13    1
    24    12    26    1
    25    12    14    1
    26    14    15    1
    27    14    37    1
    28    14    38    1
    29    15    16    1
    30    15    39    1
    31    15    40    1
    32    16    17   am
    33    16    26    1
    34    17    18    2
    35    17    19    1
    36    19    25    1
    37    19    20    2
    38    20    21    1
    39    20    22    1
    40    21    41    1
    41    21    42    1
    42    21    43    1
    43    22    23    2
    44    22    44    1
    45    23    24    1
    46    23    25    1
    47    24    45    1
    48    24    46    1
    49    24    47    1
    50    25    48    1
    51    26    49    1
    52    26    50    1
@<TRIPOS>SUBSTRUCTURE
     1 ZINC000942661662        1 TEMP              0 ****  ****    0 ROOT


##########                                Name:    ZINC000504860563
##########                DOCK_Rotatable_Bonds:                   6
##########                         Heavy_Atoms:                  25
##########                    Molecular_Weight:             370.786
##########                DOCK_Rotatable_Bonds:                   6
##########                       Formal_Charge:                0.01
##########                     HBond_Acceptors:                   9
##########                        HBond_Donors:                   0
##########                         Heavy_Atoms:                  25
##########                          Grid_Score:          -25.558720
##########                     Grid_vdw_energy:          -24.939728
##########                      Grid_es_energy:           -0.618993
##########           Internal_energy_repulsive:           19.020164

@<TRIPOS>MOLECULE
ZINC000504860563
 42 44 1 0 0
SMALL
USER_CHARGES


@<TRIPOS>ATOM
      1 O1        -11.5706   -3.1355   59.4554 O.2     1  ZINC000504860563   -0.5100
      2 C2        -11.2461   -1.9725   59.3152 C.2     1  ZINC000504860563    0.5700
      3 C3        -10.4705   -1.2890   60.3720 C.ar    1  ZINC000504860563    0.0500
      4 N4         -9.1434   -1.3440   60.3566 N.ar    1  ZINC000504860563   -0.4100
      5 C5         -8.4171   -0.7501   61.2766 C.ar    1  ZINC000504860563    0.0600
      6 C6         -9.0110   -0.0371   62.3078 C.ar    1  ZINC000504860563   -0.1000
      7 C7        -10.3903    0.0498   62.3681 C.ar    1  ZINC000504860563   -0.1700
      8 C8        -11.1389   -0.5834   61.3786 C.ar    1  ZINC000504860563    0.1400
      9 O9        -12.4941   -0.5254   61.3961 O.3     1  ZINC000504860563   -0.2600
     10 C10       -13.0889    0.5109   62.1799 C.3     1  ZINC000504860563   -0.0100
     11 C11       -12.7458    1.8718   61.5709 C.3     1  ZINC000504860563    0.2800
     12 F12       -13.2320    1.9321   60.2604 F       1  ZINC000504860563   -0.1900
     13 F13       -13.3347    2.8860   62.3338 F       1  ZINC000504860563   -0.1900
     14 N14       -11.5886   -1.3077   58.1939 N.am    1  ZINC000504860563   -0.6000
     15 C15       -11.1934    0.0947   58.0048 C.3     1  ZINC000504860563    0.0800
     16 C16       -10.4607    0.2242   56.6658 C.3     1  ZINC000504860563   -0.1500
     17 C17       -11.3446   -0.3358   55.5490 C.3     1  ZINC000504860563    0.1600
     18 N18       -10.6608   -0.1835   54.2624 N.pl3   1  ZINC000504860563   -0.3600
     19 C19        -9.4427    0.3671   54.0704 C.2     1  ZINC000504860563    0.0700
     20 C20        -9.1723    0.3178   52.7449 C.2     1  ZINC000504860563   -0.1900
     21 Cl21       -7.7286    0.8973   51.9745 Cl      1  ZINC000504860563   -0.0400
     22 C22       -10.2622   -0.2834   52.1055 C.2     1  ZINC000504860563    0.0600
     23 N23       -11.1523   -0.5887   53.0147 N.2     1  ZINC000504860563   -0.2800
     24 C24       -11.6188   -1.8190   55.8082 C.3     1  ZINC000504860563   -0.1400
     25 C25       -12.3593   -1.9734   57.1349 C.3     1  ZINC000504860563    0.1200
     26 H26        -7.3403   -0.8184   61.2294 H       1  ZINC000504860563    0.1700
     27 H27        -8.4016    0.4458   63.0574 H       1  ZINC000504860563    0.1500
     28 H28       -10.8753    0.5993   63.1614 H       1  ZINC000504860563    0.1500
     29 H29       -14.1712    0.3810   62.1927 H       1  ZINC000504860563    0.1000
     30 H30       -12.7050    0.4616   63.1989 H       1  ZINC000504860563    0.1000
     31 H31       -11.6640    2.0043   61.5635 H       1  ZINC000504860563    0.1300
     32 H32       -12.0812    0.7269   57.9982 H       1  ZINC000504860563    0.0700
     33 H33       -10.5309    0.4000   58.8148 H       1  ZINC000504860563    0.1600
     34 H34       -10.2466    1.2745   56.4682 H       1  ZINC000504860563    0.0900
     35 H35        -9.5268   -0.3366   56.7062 H       1  ZINC000504860563    0.0700
     36 H36       -12.2885    0.2090   55.5253 H       1  ZINC000504860563    0.1100
     37 H37        -8.7999    0.7743   54.8368 H       1  ZINC000504860563    0.1800
     38 H38       -10.3518   -0.4669   51.0449 H       1  ZINC000504860563    0.1900
     39 H39       -12.2290   -2.2227   55.0003 H       1  ZINC000504860563    0.0900
     40 H40       -10.6741   -2.3604   55.8568 H       1  ZINC000504860563    0.0800
     41 H41       -12.4689   -3.0318   57.3712 H       1  ZINC000504860563    0.1000
     42 H42       -13.3430   -1.5098   57.0605 H       1  ZINC000504860563    0.0800
@<TRIPOS>BOND
     1     1     2    2
     2     2     3    1
     3     2    14   am
     4     3     8   ar
     5     3     4   ar
     6     4     5   ar
     7     5     6   ar
     8     5    26    1
     9     6     7   ar
    10     6    27    1
    11     7     8   ar
    12     7    28    1
    13     8     9    1
    14     9    10    1
    15    10    11    1
    16    10    29    1
    17    10    30    1
    18    11    12    1
    19    11    13    1
    20    11    31    1
    21    14    25    1
    22    14    15    1
    23    15    16    1
    24    15    32    1
    25    15    33    1
    26    16    17    1
    27    16    34    1
    28    16    35    1
    29    17    18    1
    30    17    24    1
    31    17    36    1
    32    18    23    1
    33    18    19    1
    34    19    20    2
    35    19    37    1
    36    20    21    1
    37    20    22    1
    38    22    23    2
    39    22    38    1
    40    24    25    1
    41    24    39    1
    42    24    40    1
    43    25    41    1
    44    25    42    1
@<TRIPOS>SUBSTRUCTURE
     1 ZINC000504860563        1 TEMP              0 ****  ****    0 ROOT


##########                                Name:    ZINC001091652821
##########                DOCK_Rotatable_Bonds:                   4
##########                         Heavy_Atoms:                  24
##########                    Molecular_Weight:             345.465
##########                DOCK_Rotatable_Bonds:                   4
##########                       Formal_Charge:          -0.0199997
##########                     HBond_Acceptors:                   6
##########                        HBond_Donors:                   0
##########                         Heavy_Atoms:                  24
##########                          Grid_Score:          -25.554399
##########                     Grid_vdw_energy:          -25.452154
##########                      Grid_es_energy:           -0.102245
##########           Internal_energy_repulsive:            7.529851

@<TRIPOS>MOLECULE
ZINC001091652821
 47 50 1 0 0
SMALL
USER_CHARGES


@<TRIPOS>ATOM
      1 C1        -15.3500   -3.0241   59.3049 C.3     1  ZINC001091652821   -0.1000
      2 C2        -14.0479   -2.7958   58.5815 C.2     1  ZINC001091652821   -0.1200
      3 C3        -13.9649   -2.7595   57.2465 C.2     1  ZINC001091652821   -0.2400
      4 S4        -12.3584   -2.4844   56.7421 S.3     1  ZINC001091652821    0.2100
      5 C5        -11.7960   -2.4190   58.4068 C.2     1  ZINC001091652821   -0.2700
      6 C6        -10.4098   -2.1960   58.8280 C.2     1  ZINC001091652821    0.6100
      7 O7         -9.5839   -3.0802   58.6958 O.2     1  ZINC001091652821   -0.5200
      8 N8        -10.0499   -1.0119   59.3617 N.am    1  ZINC001091652821   -0.6200
      9 C9         -8.7069   -0.6279   59.8261 C.3     1  ZINC001091652821    0.0900
     10 C10        -8.5817    0.8860   59.5886 C.3     1  ZINC001091652821   -0.0900
     11 H11        -8.0539    1.3853   60.4011 H       1  ZINC001091652821    0.1100
     12 C12        -7.9050    1.1281   58.2231 C.3     1  ZINC001091652821    0.0400
     13 N13        -8.6976    2.2175   57.5978 N.3     1  ZINC001091652821   -0.5000
     14 C14        -8.5110    2.2348   56.1409 C.3     1  ZINC001091652821    0.1200
     15 C15        -7.1432    2.7774   55.8160 C.2     1  ZINC001091652821    0.0000
     16 C16        -6.8469    3.6440   54.8333 C.2     1  ZINC001091652821   -0.0800
     17 O17        -5.5191    3.8669   54.8880 O.3     1  ZINC001091652821   -0.2000
     18 C18        -5.0238    3.1382   55.8972 C.2     1  ZINC001091652821    0.1900
     19 C19        -3.5769    3.0873   56.3153 C.3     1  ZINC001091652821   -0.0600
     20 N20        -5.9999    2.4859   56.4613 N.2     1  ZINC001091652821   -0.4700
     21 C21       -10.1036    1.8941   57.9505 C.3     1  ZINC001091652821    0.0400
     22 C22       -10.0376    1.3972   59.4359 C.3     1  ZINC001091652821   -0.0700
     23 C23       -10.3987    2.5042   60.4284 C.3     1  ZINC001091652821   -0.1300
     24 C24       -10.9219    0.1522   59.5883 C.3     1  ZINC001091652821    0.1200
     25 C25       -12.8593   -2.6037   59.2451 C.2     1  ZINC001091652821   -0.0500
     26 H26       -15.8347   -2.0659   59.4918 H       1  ZINC001091652821    0.0700
     27 H27       -16.0015   -3.6474   58.6924 H       1  ZINC001091652821    0.0700
     28 H28       -15.1558   -3.5242   60.2537 H       1  ZINC001091652821    0.0700
     29 H29       -14.8030   -2.8878   56.5774 H       1  ZINC001091652821    0.1700
     30 H30        -8.6006   -0.8500   60.8880 H       1  ZINC001091652821    0.0800
     31 H31        -7.9470   -1.1603   59.2542 H       1  ZINC001091652821    0.0800
     32 H32        -6.8707    1.4427   58.3622 H       1  ZINC001091652821    0.0800
     33 H33        -7.9499    0.2268   57.6118 H       1  ZINC001091652821    0.0500
     34 H34        -8.6016    1.2210   55.7509 H       1  ZINC001091652821    0.0500
     35 H35        -9.2712    2.8689   55.6847 H       1  ZINC001091652821    0.1000
     36 H36        -7.5423    4.0799   54.1312 H       1  ZINC001091652821    0.2100
     37 H37        -2.9884    3.7375   55.6678 H       1  ZINC001091652821    0.0900
     38 H38        -3.4850    3.4236   57.3480 H       1  ZINC001091652821    0.1000
     39 H39        -3.2105    2.0640   56.2324 H       1  ZINC001091652821    0.1000
     40 H40       -10.7267    2.7859   57.8841 H       1  ZINC001091652821    0.0900
     41 H41       -10.4887    1.1112   57.2971 H       1  ZINC001091652821    0.0500
     42 H42       -11.4190    2.8398   60.2428 H       1  ZINC001091652821    0.0600
     43 H43       -10.3221    2.1195   61.4454 H       1  ZINC001091652821    0.0600
     44 H44        -9.7123    3.3417   60.3040 H       1  ZINC001091652821    0.0700
     45 H45       -11.7112    0.1596   58.8364 H       1  ZINC001091652821    0.0900
     46 H46       -11.3568    0.1223   60.5874 H       1  ZINC001091652821    0.0800
     47 H47       -12.7731   -2.6062   60.3216 H       1  ZINC001091652821    0.1500
@<TRIPOS>BOND
     1     1     2    1
     2     1    26    1
     3     1    27    1
     4     1    28    1
     5     2    25    1
     6     2     3    2
     7     3     4    1
     8     3    29    1
     9     4     5    1
    10     5     6    1
    11     5    25    2
    12     6     7    2
    13     6     8   am
    14     8    24    1
    15     8     9    1
    16     9    10    1
    17     9    30    1
    18     9    31    1
    19    10    11    1
    20    10    22    1
    21    10    12    1
    22    12    13    1
    23    12    32    1
    24    12    33    1
    25    13    14    1
    26    13    21    1
    27    14    15    1
    28    14    34    1
    29    14    35    1
    30    15    20    1
    31    15    16    2
    32    16    17    1
    33    16    36    1
    34    17    18    1
    35    18    19    1
    36    18    20    2
    37    19    37    1
    38    19    38    1
    39    19    39    1
    40    21    22    1
    41    21    40    1
    42    21    41    1
    43    22    23    1
    44    22    24    1
    45    23    42    1
    46    23    43    1
    47    23    44    1
    48    24    45    1
    49    24    46    1
    50    25    47    1
@<TRIPOS>SUBSTRUCTURE
     1 ZINC001091652821        1 TEMP              0 ****  ****    0 ROOT


##########                                Name:    ZINC000626935317
##########                DOCK_Rotatable_Bonds:                   6
##########                         Heavy_Atoms:                  25
##########                    Molecular_Weight:             366.441
##########                DOCK_Rotatable_Bonds:                   6
##########                       Formal_Charge:          -0.0200006
##########                     HBond_Acceptors:                   9
##########                        HBond_Donors:                   2
##########                         Heavy_Atoms:                  25
##########                          Grid_Score:          -25.526968
##########                     Grid_vdw_energy:          -24.333832
##########                      Grid_es_energy:           -1.193135
##########           Internal_energy_repulsive:           10.972055

@<TRIPOS>MOLECULE
ZINC000626935317
 47 49 1 0 0
SMALL
USER_CHARGES


@<TRIPOS>ATOM
      1 C1        -12.9190   -2.6321   60.5897 C.3     1  ZINC000626935317    0.0900
      2 N2        -12.9552   -2.0387   59.2507 N.am    1  ZINC000626935317   -0.6200
      3 C3        -14.0293   -1.4293   58.7200 C.2     1  ZINC000626935317    0.5200
      4 O4        -15.0996   -1.2999   59.2755 O.2     1  ZINC000626935317   -0.5200
      5 C5        -13.7088   -0.9280   57.3291 C.3     1  ZINC000626935317   -0.1500
      6 C6        -12.1643   -0.9568   57.2623 C.3     1  ZINC000626935317   -0.1200
      7 H7        -11.7436    0.0093   57.5413 H       1  ZINC000626935317    0.1200
      8 C8        -11.6913   -1.3727   55.8932 C.2     1  ZINC000626935317    0.5300
      9 O9        -11.2406   -2.4851   55.7193 O.2     1  ZINC000626935317   -0.5200
     10 N10       -11.7693   -0.5084   54.8619 N.am    1  ZINC000626935317   -0.7100
     11 C11       -11.3080   -0.9121   53.5313 C.3     1  ZINC000626935317    0.1200
     12 C12       -11.5378    0.1560   52.4492 C.3     1  ZINC000626935317   -0.1600
     13 C13       -10.1535    0.7149   52.8181 C.3     1  ZINC000626935317    0.1200
     14 N14       -10.1906    1.7166   53.8865 N.am    1  ZINC000626935317   -1.1100
     15 S15        -9.1326    2.9903   53.8645 S.o2    1  ZINC000626935317    2.6100
     16 C16        -7.4924    2.2170   53.9137 C.3     1  ZINC000626935317   -0.6700
     17 O17        -9.3547    3.6087   52.6046 O.2     1  ZINC000626935317   -0.9500
     18 O18        -9.3936    3.6836   55.0771 O.2     1  ZINC000626935317   -0.9500
     19 C19        -9.8011   -0.6986   53.3108 C.3     1  ZINC000626935317   -0.1600
     20 C20       -11.8214   -2.0278   58.3188 C.3     1  ZINC000626935317    0.2000
     21 H21       -11.7200   -3.0049   57.8463 H       1  ZINC000626935317    0.1100
     22 C22       -10.5485   -1.6624   59.0378 C.ar    1  ZINC000626935317   -0.1600
     23 C23        -9.4714   -2.5352   59.0456 C.ar    1  ZINC000626935317   -0.0500
     24 C24        -8.3202   -2.1567   59.7198 C.ar    1  ZINC000626935317   -0.1700
     25 C25        -8.2850   -0.9310   60.3567 C.ar    1  ZINC000626935317    0.1000
     26 N26        -9.3291   -0.1258   60.3285 N.ar    1  ZINC000626935317   -0.4800
     27 C27       -10.4380   -0.4504   59.6931 C.ar    1  ZINC000626935317    0.1200
     28 H28       -12.5984   -1.8808   61.3114 H       1  ZINC000626935317    0.0600
     29 H29       -13.9136   -2.9901   60.8555 H       1  ZINC000626935317    0.0800
     30 H30       -12.2180   -3.4668   60.5983 H       1  ZINC000626935317    0.0700
     31 H31       -14.1357   -1.5911   56.5768 H       1  ZINC000626935317    0.1100
     32 H32       -14.0775    0.0891   57.1958 H       1  ZINC000626935317    0.1200
     33 H33       -12.1310    0.3809   55.0007 H       1  ZINC000626935317    0.4000
     34 H34       -11.6545   -1.9056   53.2466 H       1  ZINC000626935317    0.1100
     35 H35       -11.5898   -0.2499   51.4390 H       1  ZINC000626935317    0.1100
     36 H36       -12.3582    0.8373   52.6754 H       1  ZINC000626935317    0.0800
     37 H37        -9.5688    1.0368   51.9563 H       1  ZINC000626935317    0.1100
     38 H38       -10.8349    1.6336   54.6069 H       1  ZINC000626935317    0.4100
     39 H39        -7.3691    1.5707   53.0448 H       1  ZINC000626935317    0.1300
     40 H40        -6.7252    2.9913   53.9023 H       1  ZINC000626935317    0.1300
     41 H41        -7.3971    1.6246   54.8237 H       1  ZINC000626935317    0.1300
     42 H42        -9.2194   -0.7074   54.2325 H       1  ZINC000626935317    0.0900
     43 H43        -9.3783   -1.3382   52.5361 H       1  ZINC000626935317    0.1100
     44 H44        -9.5277   -3.4873   58.5391 H       1  ZINC000626935317    0.1400
     45 H45        -7.4619   -2.8118   59.7468 H       1  ZINC000626935317    0.1400
     46 H46        -7.3923   -0.6290   60.8843 H       1  ZINC000626935317    0.1600
     47 H47       -11.2726    0.2350   59.6919 H       1  ZINC000626935317    0.1500
@<TRIPOS>BOND
     1     1     2    1
     2     1    28    1
     3     1    29    1
     4     1    30    1
     5     2    20    1
     6     2     3   am
     7     3     4    2
     8     3     5    1
     9     5     6    1
    10     5    31    1
    11     5    32    1
    12     6     7    1
    13     6     8    1
    14     6    20    1
    15     8     9    2
    16     8    10   am
    17    10    11    1
    18    10    33    1
    19    11    19    1
    20    11    12    1
    21    11    34    1
    22    12    13    1
    23    12    35    1
    24    12    36    1
    25    13    14    1
    26    13    19    1
    27    13    37    1
    28    14    15   am
    29    14    38    1
    30    15    16    1
    31    15    17    2
    32    15    18    2
    33    16    39    1
    34    16    40    1
    35    16    41    1
    36    19    42    1
    37    19    43    1
    38    20    21    1
    39    20    22    1
    40    22    27   ar
    41    22    23   ar
    42    23    24   ar
    43    23    44    1
    44    24    25   ar
    45    24    45    1
    46    25    26   ar
    47    25    46    1
    48    26    27   ar
    49    27    47    1
@<TRIPOS>SUBSTRUCTURE
     1 ZINC000626935317        1 TEMP              0 ****  ****    0 ROOT


##########                                Name:    ZINC001016082614
##########                DOCK_Rotatable_Bonds:                   6
##########                         Heavy_Atoms:                  25
##########                    Molecular_Weight:             348.402
##########                DOCK_Rotatable_Bonds:                   6
##########                       Formal_Charge:         -0.00999998
##########                     HBond_Acceptors:                   8
##########                        HBond_Donors:                   1
##########                         Heavy_Atoms:                  25
##########                          Grid_Score:          -25.510477
##########                     Grid_vdw_energy:          -23.677864
##########                      Grid_es_energy:           -1.832613
##########           Internal_energy_repulsive:           55.628700

@<TRIPOS>MOLECULE
ZINC001016082614
 49 51 1 0 0
SMALL
USER_CHARGES


@<TRIPOS>ATOM
      1 C1        -12.5677   -1.3985   56.0179 C.3     1  ZINC001016082614   -0.1700
      2 C2        -12.0373   -2.2653   57.1617 C.3     1  ZINC001016082614    0.1000
      3 N3        -11.8072   -1.4289   58.3422 N.am    1  ZINC001016082614   -0.6100
      4 C4        -12.8157   -1.1856   59.2027 C.2     1  ZINC001016082614    0.6100
      5 O5        -12.6246   -0.4909   60.1832 O.2     1  ZINC001016082614   -0.5100
      6 C6        -14.1439   -1.7585   58.9571 C.2     1  ZINC001016082614   -0.1100
      7 C7        -15.2557   -1.5959   59.7293 C.2     1  ZINC001016082614    0.0600
      8 N8        -16.2481   -2.2815   59.1527 N.2     1  ZINC001016082614   -0.4900
      9 C9        -15.7962   -2.8530   58.0687 C.2     1  ZINC001016082614    0.2000
     10 O10       -14.5042   -2.5459   57.9169 O.3     1  ZINC001016082614   -0.1900
     11 C11       -10.4810   -0.8568   58.5874 C.3     1  ZINC001016082614    0.1600
     12 H12        -9.8394   -1.0977   57.7398 H       1  ZINC001016082614    0.0800
     13 C13       -10.6168    0.6602   58.6765 C.3     1  ZINC001016082614   -0.1300
     14 C14        -9.3092    1.3032   58.2849 C.3     1  ZINC001016082614   -0.1300
     15 C15        -8.4364    1.5295   59.5326 C.3     1  ZINC001016082614    0.1000
     16 N16        -8.5010    0.3916   60.4706 N.am    1  ZINC001016082614   -0.6000
     17 C17        -8.5925    0.6468   61.7908 C.2     1  ZINC001016082614    0.5000
     18 O18        -8.6472   -0.2696   62.5832 O.2     1  ZINC001016082614   -0.5200
     19 C19        -8.6271    2.0711   62.2823 C.3     1  ZINC001016082614    0.1100
     20 H20        -7.9866    2.6989   61.6627 H       1  ZINC001016082614    0.1100
     21 C21        -8.1755    2.1384   63.7580 C.3     1  ZINC001016082614   -0.1200
     22 C22        -9.5269    2.0573   64.5051 C.3     1  ZINC001016082614   -0.1600
     23 C23       -10.5357    2.5773   63.5049 C.2     1  ZINC001016082614    0.5300
     24 O24       -11.6604    2.9401   63.7773 O.2     1  ZINC001016082614   -0.5300
     25 N25       -10.0036    2.5799   62.2683 N.am    1  ZINC001016082614   -0.7100
     26 C26        -8.4706   -0.9855   60.0315 C.3     1  ZINC001016082614    0.1300
     27 C27        -9.9175   -1.4838   59.7929 C.3     1  ZINC001016082614   -0.1600
     28 H28       -12.7389   -2.0208   55.1396 H       1  ZINC001016082614    0.0700
     29 H29       -13.5049   -0.9314   56.3205 H       1  ZINC001016082614    0.0500
     30 H30       -11.8372   -0.6256   55.7788 H       1  ZINC001016082614    0.0600
     31 H31       -12.7679   -3.0382   57.4008 H       1  ZINC001016082614    0.0900
     32 H32       -11.1002   -2.7324   56.8591 H       1  ZINC001016082614    0.0900
     33 H33       -15.3223   -1.0193   60.6401 H       1  ZINC001016082614    0.2000
     34 H34       -16.3754   -3.4716   57.3991 H       1  ZINC001016082614    0.2600
     35 H35       -11.4035    0.9953   58.0006 H       1  ZINC001016082614    0.0700
     36 H36       -10.8695    0.9433   59.6983 H       1  ZINC001016082614    0.0800
     37 H37        -8.7811    0.6527   57.5876 H       1  ZINC001016082614    0.0700
     38 H38        -9.5071    2.2609   57.8036 H       1  ZINC001016082614    0.0800
     39 H39        -7.4020    1.6722   59.2200 H       1  ZINC001016082614    0.0700
     40 H40        -8.7771    2.4297   60.0443 H       1  ZINC001016082614    0.0800
     41 H41        -7.5388    1.2905   64.0101 H       1  ZINC001016082614    0.1000
     42 H42        -7.6694    3.0806   63.9685 H       1  ZINC001016082614    0.1000
     43 H43        -9.7530    1.0254   64.7737 H       1  ZINC001016082614    0.1100
     44 H44        -9.5101    2.6887   65.3934 H       1  ZINC001016082614    0.1100
     45 H45       -10.4703    2.8791   61.4723 H       1  ZINC001016082614    0.4200
     46 H46        -7.9021   -1.0583   59.1043 H       1  ZINC001016082614    0.0800
     47 H47        -7.9962   -1.6000   60.7966 H       1  ZINC001016082614    0.0900
     48 H48       -10.5331   -1.2311   60.6561 H       1  ZINC001016082614    0.0900
     49 H49        -9.9097   -2.5659   59.6629 H       1  ZINC001016082614    0.0700
@<TRIPOS>BOND
     1     1     2    1
     2     1    28    1
     3     1    29    1
     4     1    30    1
     5     2     3    1
     6     2    31    1
     7     2    32    1
     8     3     4   am
     9     3    11    1
    10     4     5    2
    11     4     6    1
    12     6    10    1
    13     6     7    2
    14     7     8    1
    15     7    33    1
    16     8     9    2
    17     9    10    1
    18     9    34    1
    19    11    12    1
    20    11    27    1
    21    11    13    1
    22    13    14    1
    23    13    35    1
    24    13    36    1
    25    14    15    1
    26    14    37    1
    27    14    38    1
    28    15    16    1
    29    15    39    1
    30    15    40    1
    31    16    17   am
    32    16    26    1
    33    17    18    2
    34    17    19    1
    35    19    20    1
    36    19    25    1
    37    19    21    1
    38    21    22    1
    39    21    41    1
    40    21    42    1
    41    22    23    1
    42    22    43    1
    43    22    44    1
    44    23    24    2
    45    23    25   am
    46    25    45    1
    47    26    27    1
    48    26    46    1
    49    26    47    1
    50    27    48    1
    51    27    49    1
@<TRIPOS>SUBSTRUCTURE
     1 ZINC001016082614        1 TEMP              0 ****  ****    0 ROOT


##########                                Name:    ZINC000285228948
##########                DOCK_Rotatable_Bonds:                   8
##########                         Heavy_Atoms:                  23
##########                    Molecular_Weight:             339.822
##########                DOCK_Rotatable_Bonds:                   8
##########                       Formal_Charge:           0.0299997
##########                     HBond_Acceptors:                   7
##########                        HBond_Donors:                   3
##########                         Heavy_Atoms:                  23
##########                          Grid_Score:          -25.476744
##########                     Grid_vdw_energy:          -24.642958
##########                      Grid_es_energy:           -0.833786
##########           Internal_energy_repulsive:           22.343918

@<TRIPOS>MOLECULE
ZINC000285228948
 45 46 1 0 0
SMALL
USER_CHARGES


@<TRIPOS>ATOM
      1 C1         -4.4220    2.7825   50.7375 C.3     1  <0>        -0.1600
      2 C2         -3.3441    2.8820   51.8188 C.3     1  <0>         0.1800
      3 H3         -2.8346    1.9231   51.9133 H       1  <0>         0.1100
      4 C4         -3.9844    3.2426   53.1345 C.ar    1  <0>        -0.0900
      5 C5         -3.4378    2.7824   54.3181 C.ar    1  <0>        -0.1000
      6 C6         -4.0245    3.1127   55.5250 C.ar    1  <0>        -0.1100
      7 C7         -5.1592    3.9040   55.5487 C.ar    1  <0>        -0.0300
      8 Cl8        -5.8964    4.3198   57.0644 Cl      1  <0>        -0.0700
      9 C9         -5.7058    4.3642   54.3640 C.ar    1  <0>        -0.1100
     10 C10        -5.1148    4.0380   53.1578 C.ar    1  <0>        -0.0900
     11 N11        -2.3746    3.9158   51.4480 N.am    1  <0>        -0.6100
     12 C12        -2.5570    5.2924   51.9146 C.3     1  <0>         0.0600
     13 C13        -1.3146    3.6003   50.6776 C.2     1  <0>         0.5200
     14 O14        -0.5127    4.4564   50.3693 O.2     1  <0>        -0.5200
     15 C15        -1.1258    2.1838   50.1991 C.3     1  <0>         0.0300
     16 N16         0.1698    2.0659   49.5170 N.3     1  <0>        -0.4900
     17 C17         0.0591    1.2095   48.3085 C.3     1  <0>         0.0400
     18 C18         1.5231    0.7753   48.0464 C.3     1  <0>        -0.1400
     19 C19         2.0845    0.5736   49.4726 C.3     1  <0>         0.1100
     20 O20         2.0255   -0.8066   49.8383 O.3     1  <0>        -0.5400
     21 C21         3.5036    1.0745   49.5519 C.2     1  <0>         0.5000
     22 N22         3.8006    2.3247   49.1452 N.am    1  <0>        -0.8500
     23 O23         4.3784    0.3527   49.9817 O.2     1  <0>        -0.5200
     24 C24         1.1689    1.4084   50.3870 C.3     1  <0>         0.0600
     25 H25        -5.1434    2.0133   51.0134 H       1  <0>         0.0700
     26 H26        -4.9316    3.7414   50.6430 H       1  <0>         0.0600
     27 H27        -3.9590    2.5217   49.7858 H       1  <0>         0.0700
     28 H28        -2.5523    2.1644   54.2993 H       1  <0>         0.1400
     29 H29        -3.5976    2.7528   56.4495 H       1  <0>         0.1300
     30 H30        -6.5916    4.9817   54.3818 H       1  <0>         0.1400
     31 H31        -5.5412    4.3975   52.2330 H       1  <0>         0.1300
     32 H32        -2.0894    5.4097   52.8921 H       1  <0>         0.0600
     33 H33        -2.0955    5.9804   51.2061 H       1  <0>         0.0800
     34 H34        -3.6219    5.5115   51.9925 H       1  <0>         0.0800
     35 H35        -1.1504    1.5058   51.0523 H       1  <0>         0.1100
     36 H36        -1.9263    1.9248   49.5060 H       1  <0>         0.0700
     37 H37        -0.5696    0.3418   48.5082 H       1  <0>         0.0400
     38 H38        -0.3293    1.7816   47.4658 H       1  <0>         0.1200
     39 H39         1.5539   -0.1580   47.4841 H       1  <0>         0.0900
     40 H40         2.0705    1.5598   47.5238 H       1  <0>         0.0900
     41 H41         2.3095   -0.9857   50.7451 H       1  <0>         0.3800
     42 H42         4.7141    2.6468   49.1952 H       1  <0>         0.4000
     43 H43         3.1007    2.9024   48.8026 H       1  <0>         0.4100
     44 H44         1.7561    2.1612   50.9131 H       1  <0>         0.1100
     45 H45         0.6668    0.7580   51.1034 H       1  <0>         0.0700
@<TRIPOS>BOND
     1     1     2    1
     2     1    25    1
     3     1    26    1
     4     1    27    1
     5     2     3    1
     6     2     4    1
     7     2    11    1
     8     4    10   ar
     9     4     5   ar
    10     5     6   ar
    11     5    28    1
    12     6     7   ar
    13     6    29    1
    14     7     8    1
    15     7     9   ar
    16     9    10   ar
    17     9    30    1
    18    10    31    1
    19    11    12    1
    20    11    13   am
    21    12    32    1
    22    12    33    1
    23    12    34    1
    24    13    14    2
    25    13    15    1
    26    15    16    1
    27    15    35    1
    28    15    36    1
    29    16    24    1
    30    16    17    1
    31    17    18    1
    32    17    37    1
    33    17    38    1
    34    18    19    1
    35    18    39    1
    36    18    40    1
    37    19    20    1
    38    19    21    1
    39    19    24    1
    40    20    41    1
    41    21    22   am
    42    21    23    2
    43    22    42    1
    44    22    43    1
    45    24    44    1
    46    24    45    1
@<TRIPOS>SUBSTRUCTURE
     1 <0>         1 TEMP              0 ****  ****    0 ROOT


##########                                Name:    ZINC000826324849
##########                DOCK_Rotatable_Bonds:                   4
##########                         Heavy_Atoms:                  27
##########                    Molecular_Weight:             395.374
##########                DOCK_Rotatable_Bonds:                   4
##########                       Formal_Charge:           0.0400001
##########                     HBond_Acceptors:                  13
##########                        HBond_Donors:                   1
##########                         Heavy_Atoms:                  27
##########                          Grid_Score:          -25.473671
##########                     Grid_vdw_energy:          -23.931082
##########                      Grid_es_energy:           -1.542589
##########           Internal_energy_repulsive:           85.091148

@<TRIPOS>MOLECULE
ZINC000826324849
 41 44 1 0 0
SMALL
USER_CHARGES


@<TRIPOS>ATOM
      1 C1        -11.5392   -0.7422   54.2246 C.3     1  ZINC000826324849   -0.0600
      2 C2        -12.1301   -1.3219   55.4840 C.2     1  ZINC000826324849    0.2000
      3 N3        -13.0252   -0.7574   56.2584 N.2     1  ZINC000826324849   -0.4600
      4 C4        -13.2490   -1.6352   57.2525 C.2     1  ZINC000826324849    0.1600
      5 C5        -14.2022   -1.4530   58.4054 C.3     1  ZINC000826324849    0.2200
      6 H6        -14.8859   -0.6317   58.1902 H       1  ZINC000826324849    0.1300
      7 C7        -14.9990   -2.7438   58.6256 C.3     1  ZINC000826324849    0.0600
      8 O8        -15.7616   -2.6269   59.8291 O.3     1  ZINC000826324849   -0.3600
      9 C9        -14.9711   -2.4689   61.0098 C.3     1  ZINC000826324849    0.0400
     10 C10       -14.1729   -1.1639   60.9118 C.3     1  ZINC000826324849    0.0800
     11 N11       -13.4452   -1.1589   59.6325 N.am    1  ZINC000826324849   -1.0100
     12 S12       -11.8224   -0.8337   59.5761 S.o2    1  ZINC000826324849    2.7100
     13 O13       -11.2017   -1.7304   60.4871 O.2     1  ZINC000826324849   -0.9300
     14 O14       -11.4756   -0.7600   58.2001 O.2     1  ZINC000826324849   -0.9300
     15 C15       -11.5915    0.7841   60.2349 C.ar    1  ZINC000826324849   -0.5800
     16 C16       -12.6629    1.6480   60.3373 C.ar    1  ZINC000826324849   -0.0400
     17 C17       -12.4844    2.9188   60.8541 C.ar    1  ZINC000826324849   -0.0800
     18 C18       -11.2326    3.3321   61.2708 C.ar    1  ZINC000826324849   -0.1100
     19 C19       -10.1515    2.4753   61.1731 C.ar    1  ZINC000826324849    0.1300
     20 F20        -8.9284    2.8792   61.5807 F       1  ZINC000826324849   -0.1100
     21 C21       -10.3283    1.1909   60.6583 C.ar    1  ZINC000826324849    0.0500
     22 C22        -9.1726    0.2657   60.5509 C.2     1  ZINC000826324849    0.1800
     23 N23        -8.4798   -0.2478   61.5479 N.2     1  ZINC000826324849   -0.2600
     24 N24        -7.5622   -0.9996   61.0444 N.pl3   1  ZINC000826324849   -0.2200
     25 N25        -7.6516   -0.9788   59.7604 N.2     1  ZINC000826324849   -0.0200
     26 N26        -8.6340   -0.2150   59.4213 N.2     1  ZINC000826324849   -0.2600
     27 N27       -12.4927   -2.6695   57.0360 N.2     1  ZINC000826324849   -0.3800
     28 O28       -11.8462   -2.5120   56.0218 O.3     1  ZINC000826324849    0.0900
     29 H29       -10.8260   -1.4483   53.7994 H       1  ZINC000826324849    0.1000
     30 H30       -12.3348   -0.5513   53.5045 H       1  ZINC000826324849    0.1100
     31 H31       -11.0294    0.1922   54.4592 H       1  ZINC000826324849    0.1100
     32 H32       -15.6713   -2.9049   57.7828 H       1  ZINC000826324849    0.1200
     33 H33       -14.3121   -3.5858   58.7102 H       1  ZINC000826324849    0.0600
     34 H34       -15.6233   -2.4321   61.8824 H       1  ZINC000826324849    0.1200
     35 H35       -14.2840   -3.3099   61.1031 H       1  ZINC000826324849    0.0600
     36 H36       -14.8536   -0.3134   60.9496 H       1  ZINC000826324849    0.0900
     37 H37       -13.4639   -1.1043   61.7376 H       1  ZINC000826324849    0.1100
     38 H38       -13.6431    1.3312   60.0128 H       1  ZINC000826324849    0.1400
     39 H39       -13.3262    3.5909   60.9321 H       1  ZINC000826324849    0.1500
     40 H40       -11.0989    4.3256   61.6728 H       1  ZINC000826324849    0.1500
     41 H41        -6.9067   -1.5020   61.5531 H       1  ZINC000826324849    0.4800
@<TRIPOS>BOND
     1     1     2    1
     2     1    29    1
     3     1    30    1
     4     1    31    1
     5     2    28    1
     6     2     3    2
     7     3     4    1
     8     4     5    1
     9     4    27    2
    10     5     6    1
    11     5    11    1
    12     5     7    1
    13     7     8    1
    14     7    32    1
    15     7    33    1
    16     8     9    1
    17     9    10    1
    18     9    34    1
    19     9    35    1
    20    10    11    1
    21    10    36    1
    22    10    37    1
    23    11    12   am
    24    12    13    2
    25    12    14    2
    26    12    15    1
    27    15    21   ar
    28    15    16   ar
    29    16    17   ar
    30    16    38    1
    31    17    18   ar
    32    17    39    1
    33    18    19   ar
    34    18    40    1
    35    19    20    1
    36    19    21   ar
    37    21    22    1
    38    22    26    1
    39    22    23    2
    40    23    24    1
    41    24    25    1
    42    24    41    1
    43    25    26    2
    44    27    28    1
@<TRIPOS>SUBSTRUCTURE
     1 ZINC000826324849        1 TEMP              0 ****  ****    0 ROOT


##########                                Name:    ZINC000482139334
##########                DOCK_Rotatable_Bonds:                   4
##########                         Heavy_Atoms:                  26
##########                    Molecular_Weight:             348.376
##########                DOCK_Rotatable_Bonds:                   4
##########                       Formal_Charge:           0.0300002
##########                     HBond_Acceptors:                   5
##########                        HBond_Donors:                   1
##########                         Heavy_Atoms:                  26
##########                          Grid_Score:          -25.453581
##########                     Grid_vdw_energy:          -24.903418
##########                      Grid_es_energy:           -0.550164
##########           Internal_energy_repulsive:           18.554417

@<TRIPOS>MOLECULE
ZINC000482139334
 43 47 1 0 0
SMALL
USER_CHARGES


@<TRIPOS>ATOM
      1 O1         -9.5217    2.2441   56.7902 O.2     1  ZINC000482139334   -0.4800
      2 C2         -8.8055    2.5032   57.7340 C.2     1  ZINC000482139334    0.5500
      3 N3         -7.5038    2.7895   57.5335 N.am    1  ZINC000482139334   -0.6100
      4 C4         -6.9823    2.7820   56.2493 C.2     1  ZINC000482139334    0.4300
      5 N5         -5.7238    2.9591   55.9387 N.2     1  ZINC000482139334   -0.4800
      6 C6         -5.5987    2.8835   54.5878 C.2     1  ZINC000482139334    0.0400
      7 C7         -4.3421    3.0271   53.8122 C.ar    1  ZINC000482139334   -0.0500
      8 C8         -3.1491    3.3313   54.4639 C.ar    1  ZINC000482139334   -0.0800
      9 C9         -1.9825    3.4633   53.7377 C.ar    1  ZINC000482139334   -0.1300
     10 C10        -1.9954    3.2948   52.3650 C.ar    1  ZINC000482139334   -0.0800
     11 C11        -3.1760    2.9931   51.7106 C.ar    1  ZINC000482139334   -0.1600
     12 C12        -4.3494    2.8523   52.4275 C.ar    1  ZINC000482139334    0.1300
     13 F13        -5.5024    2.5575   51.7881 F       1  ZINC000482139334   -0.1200
     14 C14        -6.8325    2.6525   54.0800 C.2     1  ZINC000482139334   -0.0600
     15 O15        -7.6855    2.5860   55.1234 O.3     1  ZINC000482139334   -0.1800
     16 C16        -9.3724    2.5113   59.1303 C.3     1  ZINC000482139334   -0.1800
     17 H17        -9.2760    3.4525   59.6715 H       1  ZINC000482139334    0.1400
     18 C18       -10.6262    1.6715   59.3895 C.3     1  ZINC000482139334   -0.1200
     19 C19        -9.2752    1.2223   59.9370 C.3     1  ZINC000482139334   -0.0500
     20 C20        -8.5619   -0.0182   59.3738 C.3     1  ZINC000482139334   -0.0700
     21 C21        -8.4918   -0.9437   60.6088 C.3     1  ZINC000482139334   -0.0900
     22 C22        -8.5239   -0.0148   61.8043 C.ar    1  ZINC000482139334   -0.0800
     23 C23        -8.1840   -0.2432   63.1266 C.ar    1  ZINC000482139334   -0.1100
     24 C24        -8.2968    0.7695   64.0593 C.ar    1  ZINC000482139334   -0.1100
     25 C25        -8.7510    2.0160   63.6717 C.ar    1  ZINC000482139334   -0.1200
     26 C26        -9.0906    2.2466   62.3530 C.ar    1  ZINC000482139334   -0.1000
     27 C27        -8.9782    1.2337   61.4156 C.ar    1  ZINC000482139334   -0.0700
     28 H28        -6.9319    3.0006   58.2880 H       1  ZINC000482139334    0.4400
     29 H29        -3.1369    3.4640   55.5357 H       1  ZINC000482139334    0.1300
     30 H30        -1.0574    3.6992   54.2427 H       1  ZINC000482139334    0.1400
     31 H31        -1.0799    3.3996   51.8017 H       1  ZINC000482139334    0.1400
     32 H32        -3.1804    2.8632   50.6384 H       1  ZINC000482139334    0.1400
     33 H33        -7.0857    2.5392   53.0363 H       1  ZINC000482139334    0.2200
     34 H34       -11.3540    2.0599   60.1019 H       1  ZINC000482139334    0.1200
     35 H35       -11.0408    1.1132   58.5501 H       1  ZINC000482139334    0.1100
     36 H36        -9.1498   -0.4763   58.5785 H       1  ZINC000482139334    0.0800
     37 H37        -7.5619    0.2355   59.0219 H       1  ZINC000482139334    0.0900
     38 H38        -9.3508   -1.6142   60.6278 H       1  ZINC000482139334    0.0800
     39 H39        -7.5643   -1.5163   60.5998 H       1  ZINC000482139334    0.0800
     40 H40        -7.8294   -1.2171   63.4302 H       1  ZINC000482139334    0.1200
     41 H41        -8.0308    0.5872   65.0900 H       1  ZINC000482139334    0.1300
     42 H42        -8.8405    2.8089   64.3996 H       1  ZINC000482139334    0.1300
     43 H43        -9.4458    3.2210   62.0516 H       1  ZINC000482139334    0.1200
@<TRIPOS>BOND
     1     1     2    2
     2     2     3   am
     3     2    16    1
     4     3     4    1
     5     3    28    1
     6     4    15    1
     7     4     5    2
     8     5     6    1
     9     6     7    1
    10     6    14    2
    11     7    12   ar
    12     7     8   ar
    13     8     9   ar
    14     8    29    1
    15     9    10   ar
    16     9    30    1
    17    10    11   ar
    18    10    31    1
    19    11    12   ar
    20    11    32    1
    21    12    13    1
    22    14    15    1
    23    14    33    1
    24    16    17    1
    25    16    19    1
    26    16    18    1
    27    18    19    1
    28    18    34    1
    29    18    35    1
    30    19    27    1
    31    19    20    1
    32    20    21    1
    33    20    36    1
    34    20    37    1
    35    21    22    1
    36    21    38    1
    37    21    39    1
    38    22    27   ar
    39    22    23   ar
    40    23    24   ar
    41    23    40    1
    42    24    25   ar
    43    24    41    1
    44    25    26   ar
    45    25    42    1
    46    26    27   ar
    47    26    43    1
@<TRIPOS>SUBSTRUCTURE
     1 ZINC000482139334        1 TEMP              0 ****  ****    0 ROOT


##########                                Name:    ZINC000518234532
##########                DOCK_Rotatable_Bonds:                   5
##########                         Heavy_Atoms:                  25
##########                    Molecular_Weight:             408.267
##########                DOCK_Rotatable_Bonds:                   5
##########                       Formal_Charge:         -0.00999981
##########                     HBond_Acceptors:                   5
##########                        HBond_Donors:                   1
##########                         Heavy_Atoms:                  25
##########                          Grid_Score:          -25.441643
##########                     Grid_vdw_energy:          -24.767254
##########                      Grid_es_energy:           -0.674388
##########           Internal_energy_repulsive:           15.814590

@<TRIPOS>MOLECULE
ZINC000518234532
 44 46 1 0 0
SMALL
USER_CHARGES


@<TRIPOS>ATOM
      1 C1         -5.4219    4.4007   57.0030 C.3     1  ZINC000518234532   -0.1600
      2 C2         -6.8824    4.0888   56.6701 C.3     1  ZINC000518234532    0.1800
      3 H3         -7.4282    5.0206   56.5218 H       1  ZINC000518234532    0.1100
      4 N4         -6.9436    3.2866   55.4458 N.am    1  ZINC000518234532   -0.7300
      5 C5         -7.0308    3.8942   54.2458 C.2     1  ZINC000518234532    0.5200
      6 O6         -7.0571    5.1049   54.1797 O.2     1  ZINC000518234532   -0.5200
      7 C7         -7.0957    3.0690   52.9865 C.3     1  ZINC000518234532   -0.0700
      8 H8         -7.7083    3.5835   52.2461 H       1  ZINC000518234532    0.1100
      9 C9         -7.7139    1.7055   53.3015 C.3     1  ZINC000518234532   -0.1400
     10 C10        -5.7044    2.8756   52.4405 C.ar    1  ZINC000518234532   -0.1000
     11 C11        -4.6249    2.8246   53.3015 C.ar    1  ZINC000518234532   -0.0600
     12 C12        -3.3483    2.6472   52.8008 C.ar    1  ZINC000518234532   -0.1300
     13 C13        -3.1503    2.5213   51.4386 C.ar    1  ZINC000518234532   -0.0900
     14 C14        -4.2287    2.5726   50.5754 C.ar    1  ZINC000518234532   -0.1600
     15 C15        -5.5079    2.7435   51.0761 C.ar    1  ZINC000518234532    0.1000
     16 F16        -6.5626    2.7937   50.2333 F       1  ZINC000518234532   -0.1400
     17 C17        -7.5032    3.3185   57.8069 C.ar    1  ZINC000518234532   -0.0600
     18 C18        -7.3934    1.9416   57.8484 C.ar    1  ZINC000518234532   -0.1100
     19 C19        -7.9630    1.2299   58.8938 C.ar    1  ZINC000518234532    0.0800
     20 C20        -8.6425    1.9052   59.9006 C.ar    1  ZINC000518234532    0.0600
     21 C21        -8.7505    3.2871   59.8531 C.ar    1  ZINC000518234532   -0.0800
     22 C22        -8.1771    3.9912   58.8103 C.ar    1  ZINC000518234532   -0.0800
     23 Br23       -8.3252    5.8754   58.7491 Br      1  ZINC000518234532   -0.0300
     24 O24        -9.2020    1.2267   60.9394 O.3     1  ZINC000518234532   -0.3000
     25 C25        -9.3949   -0.1805   60.7597 C.3     1  ZINC000518234532    0.0200
     26 C26        -8.1066   -0.7709   60.1707 C.3     1  ZINC000518234532    0.0200
     27 O27        -7.8499   -0.1264   58.9183 O.3     1  ZINC000518234532   -0.3000
     28 H28        -4.9728    4.9578   56.1808 H       1  ZINC000518234532    0.0700
     29 H29        -5.3764    4.9974   57.9140 H       1  ZINC000518234532    0.0700
     30 H30        -4.8761    3.4689   57.1514 H       1  ZINC000518234532    0.0600
     31 H31        -6.9214    2.3184   55.4987 H       1  ZINC000518234532    0.4000
     32 H32        -8.7202    1.8452   53.6965 H       1  ZINC000518234532    0.0700
     33 H33        -7.7607    1.1085   52.3907 H       1  ZINC000518234532    0.0700
     34 H34        -7.1013    1.1910   54.0419 H       1  ZINC000518234532    0.0700
     35 H35        -4.7783    2.9236   54.3660 H       1  ZINC000518234532    0.1300
     36 H36        -2.5052    2.6075   53.4745 H       1  ZINC000518234532    0.1300
     37 H37        -2.1528    2.3832   51.0486 H       1  ZINC000518234532    0.1300
     38 H38        -4.0737    2.4749   49.5110 H       1  ZINC000518234532    0.1400
     39 H39        -6.8637    1.4189   57.0657 H       1  ZINC000518234532    0.1400
     40 H40        -9.2798    3.8140   60.6332 H       1  ZINC000518234532    0.1500
     41 H41        -9.6075   -0.6481   61.7212 H       1  ZINC000518234532    0.1300
     42 H42       -10.2251   -0.3533   60.0749 H       1  ZINC000518234532    0.0800
     43 H43        -7.2752   -0.5929   60.8528 H       1  ZINC000518234532    0.0800
     44 H44        -8.2313   -1.8423   60.0141 H       1  ZINC000518234532    0.1300
@<TRIPOS>BOND
     1     1     2    1
     2     1    28    1
     3     1    29    1
     4     1    30    1
     5     2     3    1
     6     2     4    1
     7     2    17    1
     8     4     5   am
     9     4    31    1
    10     5     6    2
    11     5     7    1
    12     7     8    1
    13     7     9    1
    14     7    10    1
    15     9    32    1
    16     9    33    1
    17     9    34    1
    18    10    15   ar
    19    10    11   ar
    20    11    12   ar
    21    11    35    1
    22    12    13   ar
    23    12    36    1
    24    13    14   ar
    25    13    37    1
    26    14    15   ar
    27    14    38    1
    28    15    16    1
    29    17    22   ar
    30    17    18   ar
    31    18    19   ar
    32    18    39    1
    33    19    27    1
    34    19    20   ar
    35    20    21   ar
    36    20    24    1
    37    21    22   ar
    38    21    40    1
    39    22    23    1
    40    24    25    1
    41    25    26    1
    42    25    41    1
    43    25    42    1
    44    26    27    1
    45    26    43    1
    46    26    44    1
@<TRIPOS>SUBSTRUCTURE
     1 ZINC000518234532        1 TEMP              0 ****  ****    0 ROOT


##########                                Name:    ZINC000347662449
##########                DOCK_Rotatable_Bonds:                   5
##########                         Heavy_Atoms:                  23
##########                    Molecular_Weight:              327.45
##########                DOCK_Rotatable_Bonds:                   5
##########                       Formal_Charge:                0.03
##########                     HBond_Acceptors:                   5
##########                        HBond_Donors:                   0
##########                         Heavy_Atoms:                  23
##########                          Grid_Score:          -25.375288
##########                     Grid_vdw_energy:          -23.996805
##########                      Grid_es_energy:           -1.378483
##########           Internal_energy_repulsive:            5.466259

@<TRIPOS>MOLECULE
ZINC000347662449
 44 46 1 0 0
SMALL
USER_CHARGES


@<TRIPOS>ATOM
      1 C1        -15.2368   -5.7874   56.4312 C.2     1  ZINC000347662449   -0.1800
      2 C2        -15.4755   -4.7370   57.1768 C.2     1  ZINC000347662449   -0.1700
      3 C3        -15.3924   -3.3554   56.5809 C.3     1  ZINC000347662449    0.1600
      4 N4        -14.0375   -2.8273   56.7593 N.am    1  ZINC000347662449   -0.6200
      5 C5        -13.1815   -2.3563   55.6642 C.3     1  ZINC000347662449    0.1100
      6 C6        -12.0765   -1.5131   56.3383 C.3     1  ZINC000347662449   -0.1100
      7 C7        -12.0388   -2.1212   57.7594 C.3     1  ZINC000347662449   -0.1200
      8 H8        -11.2787   -2.9000   57.8211 H       1  ZINC000347662449    0.1400
      9 S9        -11.7248   -0.8328   58.9915 S.3     1  ZINC000347662449    0.0300
     10 C10       -10.0901   -1.2707   59.4823 C.2     1  ZINC000347662449    0.1900
     11 N11        -9.4773   -2.3958   59.1958 N.2     1  ZINC000347662449   -0.4500
     12 C12        -8.2458   -2.3815   59.7332 C.2     1  ZINC000347662449   -0.0100
     13 C13        -8.0772   -1.2138   60.3769 C.2     1  ZINC000347662449   -0.0400
     14 N14        -9.2436   -0.4961   60.2195 N.pl3   1  ZINC000347662449   -0.4000
     15 C15        -9.5117    0.7828   60.7276 C.ar    1  ZINC000347662449    0.1100
     16 C16        -9.8583    0.9422   62.0622 C.ar    1  ZINC000347662449   -0.1100
     17 C17       -10.1219    2.2037   62.5599 C.ar    1  ZINC000347662449   -0.1000
     18 C18       -10.0408    3.3066   61.7302 C.ar    1  ZINC000347662449   -0.0800
     19 C19       -10.3285    4.6813   62.2764 C.3     1  ZINC000347662449   -0.1200
     20 C20        -9.6958    3.1508   60.4001 C.ar    1  ZINC000347662449   -0.0700
     21 C21        -9.6084    4.3556   59.4989 C.3     1  ZINC000347662449   -0.1200
     22 C22        -9.4255    1.8929   59.8981 C.ar    1  ZINC000347662449   -0.1100
     23 C23       -13.4210   -2.7066   57.9476 C.2     1  ZINC000347662449    0.5300
     24 O24       -13.9002   -3.0273   59.0146 O.2     1  ZINC000347662449   -0.4900
     25 H25       -14.9804   -5.6631   55.3894 H       1  ZINC000347662449    0.1000
     26 H26       -15.2920   -6.7773   56.8594 H       1  ZINC000347662449    0.1000
     27 H27       -15.7318   -4.8614   58.2186 H       1  ZINC000347662449    0.1100
     28 H28       -15.6264   -3.4037   55.5175 H       1  ZINC000347662449    0.0900
     29 H29       -16.1063   -2.7006   57.0806 H       1  ZINC000347662449    0.0900
     30 H30       -12.7415   -3.2036   55.1382 H       1  ZINC000347662449    0.0800
     31 H31       -13.7575   -1.7405   54.9734 H       1  ZINC000347662449    0.0900
     32 H32       -11.1206   -1.6461   55.8316 H       1  ZINC000347662449    0.1100
     33 H33       -12.3553   -0.4599   56.3718 H       1  ZINC000347662449    0.0900
     34 H34        -7.5154   -3.1737   59.6601 H       1  ZINC000347662449    0.1800
     35 H35        -7.1946   -0.8967   60.9125 H       1  ZINC000347662449    0.1800
     36 H36        -9.9221    0.0811   62.7108 H       1  ZINC000347662449    0.1300
     37 H37       -10.3920    2.3283   63.5982 H       1  ZINC000347662449    0.1300
     38 H38        -9.4057    5.1234   62.6521 H       1  ZINC000347662449    0.0800
     39 H39       -10.7358    5.3092   61.4840 H       1  ZINC000347662449    0.0700
     40 H40       -11.0520    4.6057   63.0882 H       1  ZINC000347662449    0.0700
     41 H41        -8.5954    4.7570   59.5260 H       1  ZINC000347662449    0.0800
     42 H42        -9.8568    4.0646   58.4782 H       1  ZINC000347662449    0.0700
     43 H43       -10.3100    5.1165   59.8407 H       1  ZINC000347662449    0.0800
     44 H44        -9.1558    1.7719   58.8594 H       1  ZINC000347662449    0.1300
@<TRIPOS>BOND
     1     1     2    2
     2     1    25    1
     3     1    26    1
     4     2     3    1
     5     2    27    1
     6     3     4    1
     7     3    28    1
     8     3    29    1
     9     4    23   am
    10     4     5    1
    11     5     6    1
    12     5    30    1
    13     5    31    1
    14     6     7    1
    15     6    32    1
    16     6    33    1
    17     7     8    1
    18     7     9    1
    19     7    23    1
    20     9    10    1
    21    10    14    1
    22    10    11    2
    23    11    12    1
    24    12    13    2
    25    12    34    1
    26    13    14    1
    27    13    35    1
    28    14    15    1
    29    15    22   ar
    30    15    16   ar
    31    16    17   ar
    32    16    36    1
    33    17    18   ar
    34    17    37    1
    35    18    19    1
    36    18    20   ar
    37    19    38    1
    38    19    39    1
    39    19    40    1
    40    20    21    1
    41    20    22   ar
    42    21    41    1
    43    21    42    1
    44    21    43    1
    45    22    44    1
    46    23    24    2
@<TRIPOS>SUBSTRUCTURE
     1 ZINC000347662449        1 TEMP              0 ****  ****    0 ROOT


##########                                Name:    ZINC000822449555
##########                DOCK_Rotatable_Bonds:                   5
##########                         Heavy_Atoms:                  27
##########                    Molecular_Weight:             366.383
##########                DOCK_Rotatable_Bonds:                   5
##########                       Formal_Charge:          -0.0100009
##########                     HBond_Acceptors:                  10
##########                        HBond_Donors:                   2
##########                         Heavy_Atoms:                  27
##########                          Grid_Score:          -25.348900
##########                     Grid_vdw_energy:          -23.706129
##########                      Grid_es_energy:           -1.642770
##########           Internal_energy_repulsive:            7.168458

@<TRIPOS>MOLECULE
ZINC000822449555
 45 48 1 0 0
SMALL
USER_CHARGES


@<TRIPOS>ATOM
      1 C1         -8.3710    1.2733   54.1585 C.3     1  ZINC000822449555   -0.1100
      2 C2         -7.4927    2.1509   55.0129 C.ar    1  ZINC000822449555    0.1400
      3 N3         -6.4332    2.7290   54.4803 N.ar    1  ZINC000822449555   -0.5000
      4 C4         -5.6339    3.5076   55.1926 C.ar    1  ZINC000822449555    0.3000
      5 N5         -4.5273    4.0961   54.5865 N.3     1  ZINC000822449555   -0.4700
      6 C6         -4.9412    5.0936   53.5890 C.3     1  ZINC000822449555    0.0200
      7 C7         -3.6973    5.7567   52.9917 C.3     1  ZINC000822449555    0.0600
      8 O8         -2.8493    4.7505   52.4316 O.3     1  ZINC000822449555   -0.3800
      9 C9         -2.4266    3.7628   53.3756 C.3     1  ZINC000822449555    0.0600
     10 C10        -3.6577    3.0795   53.9769 C.3     1  ZINC000822449555    0.0300
     11 C11        -5.8875    3.7447   56.5393 C.ar    1  ZINC000822449555   -0.1700
     12 C12        -6.9893    3.1553   57.1317 C.ar    1  ZINC000822449555   -0.0500
     13 C13        -7.8108    2.3460   56.3485 C.ar    1  ZINC000822449555    0.0600
     14 N14        -8.9379    1.7285   56.9067 N.am    1  ZINC000822449555   -0.6600
     15 C15        -8.7867    0.7270   57.7958 C.2     1  ZINC000822449555    0.5700
     16 O16        -7.6722    0.3591   58.1135 O.2     1  ZINC000822449555   -0.5100
     17 C17        -9.9749    0.0762   58.3841 C.ar    1  ZINC000822449555   -0.1800
     18 C18       -11.2155    0.1425   57.7355 C.ar    1  ZINC000822449555   -0.0100
     19 C19       -12.2980   -0.4814   58.3240 C.ar    1  ZINC000822449555   -0.1300
     20 C20       -12.1224   -1.1513   59.5340 C.ar    1  ZINC000822449555    0.2300
     21 C21       -13.2798   -1.8241   60.1727 C.2     1  ZINC000822449555    0.2100
     22 N22       -13.2651   -2.5269   61.2885 N.2     1  ZINC000822449555   -0.2500
     23 N23       -14.4648   -2.9431   61.5080 N.pl3   1  ZINC000822449555   -0.2200
     24 N24       -15.2390   -2.5269   60.5674 N.2     1  ZINC000822449555   -0.0400
     25 N25       -14.5460   -1.8312   59.7311 N.2     1  ZINC000822449555   -0.2500
     26 N26       -10.9329   -1.1954   60.1219 N.ar    1  ZINC000822449555   -0.4500
     27 C27        -9.8766   -0.6189   59.5916 C.ar    1  ZINC000822449555    0.1400
     28 H28        -9.1514    1.8790   53.6978 H       1  ZINC000822449555    0.0800
     29 H29        -7.7686    0.8038   53.3808 H       1  ZINC000822449555    0.0800
     30 H30        -8.8280    0.5026   54.7791 H       1  ZINC000822449555    0.0700
     31 H31        -5.5079    4.6033   52.7974 H       1  ZINC000822449555    0.0600
     32 H32        -5.5629    5.8504   54.0674 H       1  ZINC000822449555    0.1000
     33 H33        -3.9969    6.4560   52.2112 H       1  ZINC000822449555    0.1100
     34 H34        -3.1592    6.2921   53.7740 H       1  ZINC000822449555    0.0600
     35 H35        -1.8073    3.0202   52.8728 H       1  ZINC000822449555    0.1000
     36 H36        -1.8516    4.2403   54.1690 H       1  ZINC000822449555    0.0600
     37 H37        -3.3425    2.3661   54.7383 H       1  ZINC000822449555    0.1000
     38 H38        -4.2038    2.5570   53.1914 H       1  ZINC000822449555    0.0600
     39 H39        -5.2318    4.3808   57.1153 H       1  ZINC000822449555    0.1400
     40 H40        -7.2105    3.3214   58.1757 H       1  ZINC000822449555    0.1500
     41 H41        -9.8270    2.0220   56.6532 H       1  ZINC000822449555    0.4100
     42 H42       -11.3225    0.6691   56.7987 H       1  ZINC000822449555    0.1600
     43 H43       -13.2691   -0.4505   57.8525 H       1  ZINC000822449555    0.1600
     44 H44       -14.7412   -3.4851   62.2634 H       1  ZINC000822449555    0.4800
     45 H45        -8.9251   -0.6764   60.0992 H       1  ZINC000822449555    0.1700
@<TRIPOS>BOND
     1     1     2    1
     2     1    28    1
     3     1    29    1
     4     1    30    1
     5     2    13   ar
     6     2     3   ar
     7     3     4   ar
     8     4     5    1
     9     4    11   ar
    10     5    10    1
    11     5     6    1
    12     6     7    1
    13     6    31    1
    14     6    32    1
    15     7     8    1
    16     7    33    1
    17     7    34    1
    18     8     9    1
    19     9    10    1
    20     9    35    1
    21     9    36    1
    22    10    37    1
    23    10    38    1
    24    11    12   ar
    25    11    39    1
    26    12    13   ar
    27    12    40    1
    28    13    14    1
    29    14    15   am
    30    14    41    1
    31    15    16    2
    32    15    17    1
    33    17    27   ar
    34    17    18   ar
    35    18    19   ar
    36    18    42    1
    37    19    20   ar
    38    19    43    1
    39    20    21    1
    40    20    26   ar
    41    21    25    1
    42    21    22    2
    43    22    23    1
    44    23    24    1
    45    23    44    1
    46    24    25    2
    47    26    27   ar
    48    27    45    1
@<TRIPOS>SUBSTRUCTURE
     1 ZINC000822449555        1 TEMP              0 ****  ****    0 ROOT


##########                                Name:    ZINC000192150625
##########                DOCK_Rotatable_Bonds:                   5
##########                         Heavy_Atoms:                  28
##########                    Molecular_Weight:             377.443
##########                DOCK_Rotatable_Bonds:                   5
##########                       Formal_Charge:           0.0199997
##########                     HBond_Acceptors:                   6
##########                        HBond_Donors:                   1
##########                         Heavy_Atoms:                  28
##########                          Grid_Score:          -25.346899
##########                     Grid_vdw_energy:          -25.684803
##########                      Grid_es_energy:            0.337905
##########           Internal_energy_repulsive:           15.402609

@<TRIPOS>MOLECULE
ZINC000192150625
 51 54 1 0 0
SMALL
USER_CHARGES


@<TRIPOS>ATOM
      1 C1        -14.3541    1.3177   48.4121 C.3     1  ZINC000192150625   -0.0800
      2 C2        -13.3534    1.3272   49.5389 C.2     1  ZINC000192150625    0.0400
      3 C3        -12.3838    2.2384   49.6957 C.2     1  ZINC000192150625   -0.1800
      4 C4        -12.0956    3.4164   48.8010 C.3     1  ZINC000192150625   -0.0800
      5 C5        -11.6586    1.8589   50.9144 C.ar    1  ZINC000192150625   -0.1000
      6 C6        -10.5692    2.3886   51.6029 C.ar    1  ZINC000192150625   -0.0700
      7 C7        -10.1226    1.7667   52.7561 C.ar    1  ZINC000192150625    0.1200
      8 N8         -9.0298    2.2914   53.4541 N.am    1  ZINC000192150625   -0.6400
      9 C9         -7.9007    1.5666   53.5818 C.2     1  ZINC000192150625    0.5100
     10 O10        -7.8320    0.4585   53.0910 O.2     1  ZINC000192150625   -0.4900
     11 C11        -6.7340    2.1269   54.3270 C.2     1  ZINC000192150625    0.5100
     12 O12        -6.5634    1.8378   55.4933 O.2     1  ZINC000192150625   -0.5200
     13 N13        -5.8705    2.9534   53.7043 N.am    1  ZINC000192150625   -0.5800
     14 C14        -4.7147    3.5075   54.4224 C.3     1  ZINC000192150625    0.0500
     15 C15        -3.4438    3.1966   53.6256 C.3     1  ZINC000192150625   -0.1200
     16 C16        -3.6033    3.7165   52.1951 C.3     1  ZINC000192150625   -0.0500
     17 C17        -2.3416    3.4426   51.4177 C.ar    1  ZINC000192150625   -0.0300
     18 C18        -1.2706    4.3214   51.4705 C.ar    1  ZINC000192150625   -0.1700
     19 C19        -0.1297    4.0371   50.7441 C.ar    1  ZINC000192150625    0.1000
     20 N20        -0.0535    2.9460   50.0075 N.ar    1  ZINC000192150625   -0.4900
     21 C21        -1.0523    2.0880   49.9336 C.ar    1  ZINC000192150625    0.1000
     22 C22        -2.2222    2.3028   50.6372 C.ar    1  ZINC000192150625   -0.1700
     23 C23        -4.7810    3.0085   51.5216 C.3     1  ZINC000192150625   -0.1200
     24 C24        -6.0637    3.3125   52.2928 C.3     1  ZINC000192150625    0.1100
     25 C25       -10.7600    0.6188   53.2230 C.ar    1  ZINC000192150625   -0.1100
     26 C26       -11.8374    0.0904   52.5469 C.ar    1  ZINC000192150625   -0.0800
     27 C27       -12.2993    0.7013   51.3878 C.ar    1  ZINC000192150625    0.0500
     28 O28       -13.3082    0.4260   50.5353 O.3     1  ZINC000192150625   -0.1900
     29 H29       -15.0292    0.4705   48.5328 H       1  ZINC000192150625    0.0800
     30 H30       -14.9277    2.2444   48.4277 H       1  ZINC000192150625    0.0900
     31 H31       -13.8292    1.2312   47.4607 H       1  ZINC000192150625    0.0900
     32 H32       -12.6629    4.2812   49.1450 H       1  ZINC000192150625    0.0700
     33 H33       -11.0303    3.6447   48.8327 H       1  ZINC000192150625    0.0700
     34 H34       -12.3853    3.1752   47.7782 H       1  ZINC000192150625    0.0700
     35 H35       -10.0764    3.2782   51.2390 H       1  ZINC000192150625    0.1400
     36 H36        -9.0846    3.1769   53.8463 H       1  ZINC000192150625    0.4300
     37 H37        -4.8291    4.5871   54.5211 H       1  ZINC000192150625    0.0700
     38 H38        -4.6465    3.0534   55.4109 H       1  ZINC000192150625    0.1600
     39 H39        -2.5904    3.6842   54.0969 H       1  ZINC000192150625    0.0800
     40 H40        -3.2818    2.1189   53.6051 H       1  ZINC000192150625    0.0700
     41 H41        -3.7901    4.7901   52.2177 H       1  ZINC000192150625    0.0900
     42 H42        -1.3272    5.2170   52.0714 H       1  ZINC000192150625    0.1300
     43 H43         0.7090    4.7165   50.7799 H       1  ZINC000192150625    0.1600
     44 H44        -0.9533    1.2053   49.3194 H       1  ZINC000192150625    0.1600
     45 H45        -3.0366    1.5963   50.5730 H       1  ZINC000192150625    0.1300
     46 H46        -4.8796    3.3622   50.4952 H       1  ZINC000192150625    0.0800
     47 H47        -4.6065    1.9325   51.5208 H       1  ZINC000192150625    0.0700
     48 H48        -6.8869    2.7320   51.8761 H       1  ZINC000192150625    0.1000
     49 H49        -6.2903    4.3761   52.2202 H       1  ZINC000192150625    0.0800
     50 H50       -10.4056    0.1388   54.1232 H       1  ZINC000192150625    0.1400
     51 H51       -12.3236   -0.7996   52.9181 H       1  ZINC000192150625    0.1400
@<TRIPOS>BOND
     1     1     2    1
     2     1    29    1
     3     1    30    1
     4     1    31    1
     5     2    28    1
     6     2     3    2
     7     3     4    1
     8     3     5    1
     9     4    32    1
    10     4    33    1
    11     4    34    1
    12     5    27   ar
    13     5     6   ar
    14     6     7   ar
    15     6    35    1
    16     7     8    1
    17     7    25   ar
    18     8     9   am
    19     8    36    1
    20     9    10    2
    21     9    11    1
    22    11    12    2
    23    11    13   am
    24    13    24    1
    25    13    14    1
    26    14    15    1
    27    14    37    1
    28    14    38    1
    29    15    16    1
    30    15    39    1
    31    15    40    1
    32    16    17    1
    33    16    23    1
    34    16    41    1
    35    17    22   ar
    36    17    18   ar
    37    18    19   ar
    38    18    42    1
    39    19    20   ar
    40    19    43    1
    41    20    21   ar
    42    21    22   ar
    43    21    44    1
    44    22    45    1
    45    23    24    1
    46    23    46    1
    47    23    47    1
    48    24    48    1
    49    24    49    1
    50    25    26   ar
    51    25    50    1
    52    26    27   ar
    53    26    51    1
    54    27    28    1
@<TRIPOS>SUBSTRUCTURE
     1 ZINC000192150625        1 TEMP              0 ****  ****    0 ROOT


##########                                Name:    ZINC000080099940
##########                DOCK_Rotatable_Bonds:                   4
##########                         Heavy_Atoms:                  26
##########                    Molecular_Weight:             343.388
##########                DOCK_Rotatable_Bonds:                   4
##########                       Formal_Charge:        -3.42727e-07
##########                     HBond_Acceptors:                   6
##########                        HBond_Donors:                   1
##########                         Heavy_Atoms:                  26
##########                          Grid_Score:          -25.346083
##########                     Grid_vdw_energy:          -25.118053
##########                      Grid_es_energy:           -0.228030
##########           Internal_energy_repulsive:            3.463229

@<TRIPOS>MOLECULE
ZINC000080099940
 43 46 1 0 0
SMALL
USER_CHARGES


@<TRIPOS>ATOM
      1 C1          2.8311    4.1430   40.9434 C.3     1  ZINC000080099940   -0.1100
      2 C2          2.7703    4.3944   42.4281 C.2     1  ZINC000080099940   -0.0700
      3 C3          1.8032    3.8056   43.1816 C.2     1  ZINC000080099940   -0.0900
      4 C4          1.7620    4.0527   44.5693 C.2     1  ZINC000080099940    0.2300
      5 N5          0.9501    3.6235   45.5241 N.2     1  ZINC000080099940   -0.4800
      6 C6          1.3330    4.1523   46.6972 C.2     1  ZINC000080099940    0.1000
      7 C7          0.6823    3.9177   48.0098 C.ar    1  ZINC000080099940   -0.0200
      8 C8         -0.1016    2.7821   48.2071 C.ar    1  ZINC000080099940   -0.0800
      9 C9         -0.7050    2.5658   49.4278 C.ar    1  ZINC000080099940   -0.1200
     10 C10        -0.5324    3.4793   50.4611 C.ar    1  ZINC000080099940    0.1500
     11 N11        -1.1454    3.2583   51.6975 N.am    1  ZINC000080099940   -0.6500
     12 C12        -2.4719    3.4519   51.8361 C.2     1  ZINC000080099940    0.5700
     13 O13        -3.1350    3.8186   50.8864 O.2     1  ZINC000080099940   -0.5000
     14 C14        -3.1228    3.2171   53.1490 C.ar    1  ZINC000080099940    0.1300
     15 C15        -4.5121    3.2626   53.2701 C.ar    1  ZINC000080099940   -0.1700
     16 C16        -5.0705    3.0355   54.5202 C.ar    1  ZINC000080099940    0.1600
     17 N17        -4.2743    2.7859   55.5453 N.ar    1  ZINC000080099940   -0.5000
     18 C18        -2.9641    2.7501   55.3961 C.ar    1  ZINC000080099940    0.3200
     19 C19        -2.0988    2.4613   56.5956 C.3     1  ZINC000080099940   -0.0900
     20 N20        -2.3912    2.9542   54.2296 N.ar    1  ZINC000080099940   -0.5000
     21 C21         0.2492    4.6121   50.2666 C.ar    1  ZINC000080099940   -0.1400
     22 C22         0.8587    4.8296   49.0492 C.ar    1  ZINC000080099940   -0.0700
     23 C23         2.4218    4.9407   46.4759 C.2     1  ZINC000080099940   -0.0900
     24 N24         2.6955    4.8810   45.1379 N.pl3   1  ZINC000080099940   -0.3600
     25 C25         3.6607    5.4653   44.3692 C.2     1  ZINC000080099940    0.0600
     26 C26         3.7158    5.2333   43.0408 C.2     1  ZINC000080099940   -0.1400
     27 H27         3.6697    4.6926   40.5159 H       1  ZINC000080099940    0.0700
     28 H28         2.9644    3.0768   40.7606 H       1  ZINC000080099940    0.0800
     29 H29         1.9030    4.4779   40.4799 H       1  ZINC000080099940    0.0800
     30 H30         1.0736    3.1555   42.7216 H       1  ZINC000080099940    0.1500
     31 H31        -0.2366    2.0724   47.4043 H       1  ZINC000080099940    0.1300
     32 H32        -1.3124    1.6861   49.5811 H       1  ZINC000080099940    0.1400
     33 H33        -0.6161    2.9654   52.4557 H       1  ZINC000080099940    0.4200
     34 H34        -5.1364    3.4695   52.4135 H       1  ZINC000080099940    0.1600
     35 H35        -6.1419    3.0626   54.6537 H       1  ZINC000080099940    0.1800
     36 H36        -1.9410    1.3861   56.6795 H       1  ZINC000080099940    0.0900
     37 H37        -1.1375    2.9617   56.4791 H       1  ZINC000080099940    0.0900
     38 H38        -2.5922    2.8274   57.4961 H       1  ZINC000080099940    0.0900
     39 H39         0.3820    5.3206   51.0709 H       1  ZINC000080099940    0.1300
     40 H40         1.4662    5.7097   48.8987 H       1  ZINC000080099940    0.1400
     41 H41         2.9660    5.5065   47.2177 H       1  ZINC000080099940    0.1900
     42 H42         4.3899    6.1155   44.8293 H       1  ZINC000080099940    0.1700
     43 H43         4.4850    5.7019   42.4448 H       1  ZINC000080099940    0.1500
@<TRIPOS>BOND
     1     1     2    1
     2     1    27    1
     3     1    28    1
     4     1    29    1
     5     2    26    1
     6     2     3    2
     7     3     4    1
     8     3    30    1
     9     4    24    1
    10     4     5    2
    11     5     6    1
    12     6     7    1
    13     6    23    2
    14     7    22   ar
    15     7     8   ar
    16     8     9   ar
    17     8    31    1
    18     9    10   ar
    19     9    32    1
    20    10    11    1
    21    10    21   ar
    22    11    12   am
    23    11    33    1
    24    12    13    2
    25    12    14    1
    26    14    20   ar
    27    14    15   ar
    28    15    16   ar
    29    15    34    1
    30    16    17   ar
    31    16    35    1
    32    17    18   ar
    33    18    19    1
    34    18    20   ar
    35    19    36    1
    36    19    37    1
    37    19    38    1
    38    21    22   ar
    39    21    39    1
    40    22    40    1
    41    23    24    1
    42    23    41    1
    43    24    25    1
    44    25    26    2
    45    25    42    1
    46    26    43    1
@<TRIPOS>SUBSTRUCTURE
     1 ZINC000080099940        1 TEMP              0 ****  ****    0 ROOT


##########                                Name:    ZINC000338927927
##########                DOCK_Rotatable_Bonds:                   9
##########                         Heavy_Atoms:                  23
##########                    Molecular_Weight:             336.286
##########                DOCK_Rotatable_Bonds:                   9
##########                       Formal_Charge:         -0.00999999
##########                     HBond_Acceptors:                   9
##########                        HBond_Donors:                   2
##########                         Heavy_Atoms:                  23
##########                          Grid_Score:          -25.320423
##########                     Grid_vdw_energy:          -23.071434
##########                      Grid_es_energy:           -2.248988
##########           Internal_energy_repulsive:            7.801532

@<TRIPOS>MOLECULE
ZINC000338927927
 39 39 1 0 0
SMALL
USER_CHARGES


@<TRIPOS>ATOM
      1 C1         -8.9668    1.1675   52.1363 C.3     1  <0>        -0.1600
      2 C2         -7.4584    1.3264   52.3373 C.3     1  <0>        -0.1100
      3 C3         -7.1519    2.7554   52.7897 C.3     1  <0>        -0.1000
      4 H4         -7.9206    3.4291   52.4110 H       1  <0>         0.1400
      5 C5         -5.8077    3.1748   52.2529 C.2     1  <0>         0.5200
      6 O6         -5.6749    4.2623   51.7325 O.2     1  <0>        -0.4700
      7 N7         -4.7530    2.3415   52.3511 N.am    1  <0>        -0.6700
      8 C8         -3.5049    2.7308   51.8528 C.ar    1  <0>         0.2200
      9 C9         -2.5248    3.1957   52.7199 C.ar    1  <0>        -0.2300
     10 C10        -1.2899    3.5810   52.2276 C.ar    1  <0>         0.1700
     11 F11        -0.3379    4.0330   53.0729 F       1  <0>        -0.1300
     12 C12        -1.0289    3.5033   50.8711 C.ar    1  <0>        -0.2500
     13 C13        -2.0066    3.0387   50.0001 C.ar    1  <0>         0.2600
     14 N14        -1.7429    2.9609   48.6307 N.pl3   1  <0>        -0.7400
     15 C15        -1.0227    1.8064   48.0878 C.3     1  <0>         0.0800
     16 C16         0.4409    2.1838   47.8507 C.3     1  <0>         0.4500
     17 F17         0.5417    3.5668   47.6652 F       1  <0>        -0.1800
     18 F18         1.2057    1.8050   48.9593 F       1  <0>        -0.1700
     19 F19         0.9137    1.5247   46.7108 F       1  <0>        -0.1800
     20 C20        -3.2436    2.6471   50.4924 C.ar    1  <0>        -0.2000
     21 C21        -7.1315    2.8123   54.2955 C.2     1  <0>         0.4600
     22 O22        -6.5649    3.7189   54.8582 O.2     1  <0>        -0.4600
     23 O23        -7.7428    1.8556   55.0115 O.3     1  <0>        -0.3500
     24 C24        -7.6570    1.9580   56.4573 C.3     1  <0>         0.0300
     25 H25        -9.3081    1.8702   51.3762 H       1  <0>         0.0600
     26 H26        -9.1851    0.1493   51.8141 H       1  <0>         0.0600
     27 H27        -9.4818    1.3696   53.0755 H       1  <0>         0.0800
     28 H28        -7.1172    0.6235   53.0974 H       1  <0>         0.0800
     29 H29        -6.9435    1.1242   51.3981 H       1  <0>         0.0800
     30 H30        -4.8592    1.4718   52.7674 H       1  <0>         0.4200
     31 H31        -2.7265    3.2571   53.7790 H       1  <0>         0.1400
     32 H32        -0.0646    3.8045   50.4890 H       1  <0>         0.1400
     33 H33        -2.0366    3.6712   48.0392 H       1  <0>         0.4100
     34 H34        -1.0746    0.9798   48.7964 H       1  <0>         0.1100
     35 H35        -1.4777    1.5052   47.1443 H       1  <0>         0.1100
     36 H36        -4.0047    2.2857   49.8169 H       1  <0>         0.1500
     37 H37        -8.1917    1.1246   56.9131 H       1  <0>         0.1000
     38 H38        -6.6109    1.9287   56.7622 H       1  <0>         0.0600
     39 H39        -8.1039    2.8976   56.7822 H       1  <0>         0.0600
@<TRIPOS>BOND
     1     1     2    1
     2     1    25    1
     3     1    26    1
     4     1    27    1
     5     2     3    1
     6     2    28    1
     7     2    29    1
     8     3     4    1
     9     3     5    1
    10     3    21    1
    11     5     6    2
    12     5     7   am
    13     7     8    1
    14     7    30    1
    15     8    20   ar
    16     8     9   ar
    17     9    10   ar
    18     9    31    1
    19    10    11    1
    20    10    12   ar
    21    12    13   ar
    22    12    32    1
    23    13    14    1
    24    13    20   ar
    25    14    15    1
    26    14    33    1
    27    15    16    1
    28    15    34    1
    29    15    35    1
    30    16    17    1
    31    16    18    1
    32    16    19    1
    33    20    36    1
    34    21    22    2
    35    21    23    1
    36    23    24    1
    37    24    37    1
    38    24    38    1
    39    24    39    1
@<TRIPOS>SUBSTRUCTURE
     1 <0>         1 TEMP              0 ****  ****    0 ROOT


##########                                Name:    ZINC000507831344
##########                DOCK_Rotatable_Bonds:                   6
##########                         Heavy_Atoms:                  31
##########                    Molecular_Weight:              422.53
##########                DOCK_Rotatable_Bonds:                   6
##########                       Formal_Charge:          -0.0200002
##########                     HBond_Acceptors:                   8
##########                        HBond_Donors:                   2
##########                         Heavy_Atoms:                  31
##########                          Grid_Score:          -25.304504
##########                     Grid_vdw_energy:          -25.229223
##########                      Grid_es_energy:           -0.075281
##########           Internal_energy_repulsive:           23.728504

@<TRIPOS>MOLECULE
ZINC000507831344
 61 64 1 0 0
SMALL
USER_CHARGES


@<TRIPOS>ATOM
      1 C1        -10.1362    4.7671   58.2945 C.3     1  ZINC000507831344   -0.1000
      2 C2         -9.2811    3.5480   58.0625 C.ar    1  ZINC000507831344   -0.0800
      3 C3         -8.2305    3.5907   57.1647 C.ar    1  ZINC000507831344   -0.0800
      4 C4         -7.4658    2.4394   56.9822 C.ar    1  ZINC000507831344    0.0900
      5 N5         -6.3908    2.4369   56.0825 N.am    1  ZINC000507831344   -0.6700
      6 C6         -5.3042    3.1953   56.3287 C.2     1  ZINC000507831344    0.5100
      7 O7         -5.2566    3.8801   57.3288 O.2     1  ZINC000507831344   -0.5100
      8 C8         -4.1485    3.1927   55.3616 C.3     1  ZINC000507831344   -0.1400
      9 C9         -4.3165    4.3397   54.3630 C.3     1  ZINC000507831344   -0.0500
     10 C10        -3.8145    3.9054   53.0100 C.2     1  ZINC000507831344   -0.2200
     11 C11        -2.4810    3.7725   52.7835 C.2     1  ZINC000507831344    0.2100
     12 C12        -1.4889    4.0575   53.8815 C.3     1  ZINC000507831344   -0.1400
     13 N13        -2.0528    3.3788   51.5545 N.pl3   1  ZINC000507831344   -0.3000
     14 N14        -0.7728    3.1589   51.0316 N.am    1  ZINC000507831344   -0.5100
     15 C15        -0.8971    2.7751   49.7467 C.2     1  ZINC000507831344    0.5500
     16 O16         0.0213    2.5019   48.9909 O.2     1  ZINC000507831344   -0.5400
     17 C17        -2.2536    2.7431   49.4271 C.2     1  ZINC000507831344   -0.3500
     18 C18        -2.9660    3.1217   50.5629 C.2     1  ZINC000507831344    0.3500
     19 N19        -4.2769    3.2550   50.7956 N.2     1  ZINC000507831344   -0.4800
     20 C20        -4.7175    3.6296   51.9773 C.2     1  ZINC000507831344    0.2500
     21 C21        -6.1985    3.7725   52.2162 C.3     1  ZINC000507831344   -0.1200
     22 C22        -7.7812    1.2971   57.7016 C.ar    1  ZINC000507831344    0.0800
     23 N23        -8.7914    1.2917   58.5506 N.ar    1  ZINC000507831344   -0.4900
     24 C24        -9.5352    2.3675   58.7531 C.ar    1  ZINC000507831344    0.2800
     25 N25       -10.5906    2.3140   59.6595 N.3     1  ZINC000507831344   -0.4800
     26 C26       -11.7001    1.5118   59.1286 C.3     1  ZINC000507831344    0.0600
     27 C27       -12.8936    1.5947   60.0830 C.3     1  ZINC000507831344   -0.1200
     28 C28       -12.4760    1.0736   61.4609 C.3     1  ZINC000507831344   -0.1200
     29 C29       -11.2880    1.8946   61.9699 C.3     1  ZINC000507831344   -0.1100
     30 C30       -10.1412    1.8031   60.9608 C.3     1  ZINC000507831344    0.0900
     31 H31        -9.8321    0.7631   60.8557 H       1  ZINC000507831344    0.0600
     32 C32        -8.9589    2.6388   61.4557 C.3     1  ZINC000507831344   -0.1400
     33 H33        -9.7594    5.3162   59.1575 H       1  ZINC000507831344    0.0700
     34 H34       -10.1026    5.4076   57.4132 H       1  ZINC000507831344    0.0600
     35 H35       -11.1651    4.4590   58.4808 H       1  ZINC000507831344    0.0800
     36 H36        -8.0077    4.4946   56.6173 H       1  ZINC000507831344    0.1500
     37 H37        -6.4289    1.8894   55.2826 H       1  ZINC000507831344    0.4100
     38 H38        -3.2156    3.3222   55.9101 H       1  ZINC000507831344    0.1000
     39 H39        -4.1259    2.2442   54.8250 H       1  ZINC000507831344    0.1000
     40 H40        -5.3708    4.6070   54.2906 H       1  ZINC000507831344    0.0900
     41 H41        -3.7451    5.2036   54.7024 H       1  ZINC000507831344    0.1000
     42 H42        -1.2971    3.1439   54.4440 H       1  ZINC000507831344    0.1000
     43 H43        -0.5573    4.4179   53.4449 H       1  ZINC000507831344    0.0800
     44 H44        -1.8947    4.8172   54.5497 H       1  ZINC000507831344    0.1100
     45 H45         0.0623    3.2655   51.5133 H       1  ZINC000507831344    0.4400
     46 H46        -2.6763    2.4735   48.4706 H       1  ZINC000507831344    0.1700
     47 H47        -6.7394    3.5253   51.3026 H       1  ZINC000507831344    0.0900
     48 H48        -6.5048    3.0960   53.0141 H       1  ZINC000507831344    0.1000
     49 H49        -6.4226    4.7996   52.5046 H       1  ZINC000507831344    0.0900
     50 H50        -7.1936    0.4013   57.5654 H       1  ZINC000507831344    0.1600
     51 H51       -11.9901    1.8955   58.1504 H       1  ZINC000507831344    0.0700
     52 H52       -11.3837    0.4734   59.0319 H       1  ZINC000507831344    0.0500
     53 H53       -13.2192    2.6314   60.1693 H       1  ZINC000507831344    0.0700
     54 H54       -13.7115    0.9867   59.6965 H       1  ZINC000507831344    0.0700
     55 H55       -13.3104    1.1710   62.1553 H       1  ZINC000507831344    0.0700
     56 H56       -12.1873    0.0255   61.3818 H       1  ZINC000507831344    0.0600
     57 H57       -11.5885    2.9360   62.0861 H       1  ZINC000507831344    0.0700
     58 H58       -10.9589    1.5009   62.9316 H       1  ZINC000507831344    0.0700
     59 H59        -8.5692    2.2068   62.3774 H       1  ZINC000507831344    0.0600
     60 H60        -8.1757    2.6448   60.6976 H       1  ZINC000507831344    0.0500
     61 H61        -9.2896    3.6601   61.6444 H       1  ZINC000507831344    0.0600
@<TRIPOS>BOND
     1     1     2    1
     2     1    33    1
     3     1    34    1
     4     1    35    1
     5     2    24   ar
     6     2     3   ar
     7     3     4   ar
     8     3    36    1
     9     4     5    1
    10     4    22   ar
    11     5     6   am
    12     5    37    1
    13     6     7    2
    14     6     8    1
    15     8     9    1
    16     8    38    1
    17     8    39    1
    18     9    10    1
    19     9    40    1
    20     9    41    1
    21    10    20    1
    22    10    11    2
    23    11    12    1
    24    11    13    1
    25    12    42    1
    26    12    43    1
    27    12    44    1
    28    13    18    1
    29    13    14    1
    30    14    15   am
    31    14    45    1
    32    15    16    2
    33    15    17    1
    34    17    18    2
    35    17    46    1
    36    18    19    1
    37    19    20    2
    38    20    21    1
    39    21    47    1
    40    21    48    1
    41    21    49    1
    42    22    23   ar
    43    22    50    1
    44    23    24   ar
    45    24    25    1
    46    25    30    1
    47    25    26    1
    48    26    27    1
    49    26    51    1
    50    26    52    1
    51    27    28    1
    52    27    53    1
    53    27    54    1
    54    28    29    1
    55    28    55    1
    56    28    56    1
    57    29    30    1
    58    29    57    1
    59    29    58    1
    60    30    31    1
    61    30    32    1
    62    32    59    1
    63    32    60    1
    64    32    61    1
@<TRIPOS>SUBSTRUCTURE
     1 ZINC000507831344        1 TEMP              0 ****  ****    0 ROOT


##########                                Name:    ZINC000281257088
##########                DOCK_Rotatable_Bonds:                   8
##########                         Heavy_Atoms:                  27
##########                    Molecular_Weight:             395.541
##########                DOCK_Rotatable_Bonds:                   8
##########                       Formal_Charge:          -0.0200005
##########                     HBond_Acceptors:                   7
##########                        HBond_Donors:                   1
##########                         Heavy_Atoms:                  27
##########                          Grid_Score:          -25.303480
##########                     Grid_vdw_energy:          -24.416529
##########                      Grid_es_energy:           -0.886951
##########           Internal_energy_repulsive:           26.417316

@<TRIPOS>MOLECULE
ZINC000281257088
 57 58 1 0 0
SMALL
USER_CHARGES


@<TRIPOS>ATOM
      1 C1        -10.1746    2.5906   61.0855 C.3     1  ZINC000281257088   -0.0700
      2 C2        -10.5614    1.1766   60.7366 C.2     1  ZINC000281257088    0.1000
      3 N3        -11.6036    0.5312   61.1941 N.2     1  ZINC000281257088   -0.3000
      4 N4        -11.6069   -0.7508   60.6296 N.pl3   1  ZINC000281257088   -0.3700
      5 C5        -12.6015   -1.7981   60.8753 C.3     1  ZINC000281257088    0.1500
      6 C6        -13.3610   -2.0941   59.5805 C.3     1  ZINC000281257088   -0.6400
      7 S7        -15.1054   -2.4133   59.9622 S.o2    1  ZINC000281257088    2.4300
      8 C8        -15.6192   -3.4262   58.5478 C.3     1  ZINC000281257088   -0.6500
      9 O9        -15.1734   -3.2091   61.1375 O.2     1  ZINC000281257088   -0.9300
     10 O10       -15.8116   -1.1810   59.9169 O.2     1  ZINC000281257088   -0.9300
     11 C11       -10.5323   -0.8507   59.8195 C.2     1  ZINC000281257088    0.0900
     12 C12       -10.1414   -2.0583   59.0069 C.3     1  ZINC000281257088   -0.1000
     13 C13        -9.8717    0.3294   59.8631 C.2     1  ZINC000281257088   -0.2300
     14 C14        -8.6108    0.6680   59.1104 C.3     1  ZINC000281257088    0.1400
     15 N15        -8.7373    2.0074   58.5206 N.3     1  ZINC000281257088   -0.6700
     16 C16        -8.1898    2.0364   57.1578 C.3     1  ZINC000281257088    0.1400
     17 H17        -7.7142    1.0808   56.9369 H       1  ZINC000281257088    0.0500
     18 C18        -7.1711    3.1415   57.0490 C.ar    1  ZINC000281257088   -0.0800
     19 C19        -7.3918    4.3493   57.6844 C.ar    1  ZINC000281257088   -0.0600
     20 C20        -6.4582    5.3636   57.5854 C.ar    1  ZINC000281257088   -0.1600
     21 C21        -5.3013    5.1695   56.8500 C.ar    1  ZINC000281257088    0.1000
     22 F22        -4.3878    6.1600   56.7529 F       1  ZINC000281257088   -0.1400
     23 C23        -5.0811    3.9592   56.2145 C.ar    1  ZINC000281257088   -0.1600
     24 C24        -6.0138    2.9448   56.3188 C.ar    1  ZINC000281257088   -0.0900
     25 C25        -9.3214    2.2858   56.1587 C.3     1  ZINC000281257088   -0.0600
     26 C26       -10.3567    3.2228   56.7841 C.3     1  ZINC000281257088   -0.1400
     27 C27        -8.7513    2.9281   54.8924 C.3     1  ZINC000281257088   -0.1400
     28 C28        -9.9878    0.9560   55.8005 C.3     1  ZINC000281257088   -0.1500
     29 H29       -10.6467    3.2798   60.3854 H       1  ZINC000281257088    0.0800
     30 H30       -10.5056    2.8184   62.0988 H       1  ZINC000281257088    0.0700
     31 H31        -9.0914    2.6965   61.0249 H       1  ZINC000281257088    0.0800
     32 H32       -12.0992   -2.7032   61.2168 H       1  ZINC000281257088    0.1100
     33 H33       -13.3025   -1.4614   61.6389 H       1  ZINC000281257088    0.1100
     34 H34       -13.2864   -1.2368   58.9115 H       1  ZINC000281257088    0.1400
     35 H35       -12.9284   -2.9704   59.0977 H       1  ZINC000281257088    0.1400
     36 H36       -15.0162   -4.3334   58.5125 H       1  ZINC000281257088    0.1300
     37 H37       -16.6708   -3.6927   58.6548 H       1  ZINC000281257088    0.1300
     38 H38       -15.4796   -2.8610   57.6263 H       1  ZINC000281257088    0.1300
     39 H39       -10.6087   -2.0015   58.0238 H       1  ZINC000281257088    0.0800
     40 H40        -9.0577   -2.0843   58.8931 H       1  ZINC000281257088    0.0900
     41 H41       -10.4751   -2.9624   59.5162 H       1  ZINC000281257088    0.0700
     42 H42        -7.7632    0.6514   59.7956 H       1  ZINC000281257088    0.0800
     43 H43        -8.4525   -0.0642   58.3187 H       1  ZINC000281257088    0.0300
     44 H44        -9.6973    2.3180   58.5313 H       1  ZINC000281257088    0.3400
     45 H45        -8.2943    4.5005   58.2580 H       1  ZINC000281257088    0.1400
     46 H46        -6.6313    6.3073   58.0813 H       1  ZINC000281257088    0.1300
     47 H47        -4.1791    3.8068   55.6403 H       1  ZINC000281257088    0.1300
     48 H48        -5.8420    2.0005   55.8235 H       1  ZINC000281257088    0.1300
     49 H49        -9.8819    4.1702   57.0393 H       1  ZINC000281257088    0.0600
     50 H50       -11.1628    3.4006   56.0723 H       1  ZINC000281257088    0.0500
     51 H51       -10.7627    2.7653   57.6862 H       1  ZINC000281257088    0.0600
     52 H52        -8.0138    2.2605   54.4468 H       1  ZINC000281257088    0.0500
     53 H53        -9.5575    3.1057   54.1806 H       1  ZINC000281257088    0.0600
     54 H54        -8.2766    3.8755   55.1476 H       1  ZINC000281257088    0.0600
     55 H55       -10.4613    0.5362   56.6879 H       1  ZINC000281257088    0.0500
     56 H56       -10.7416    1.1230   55.0310 H       1  ZINC000281257088    0.0600
     57 H57        -9.2352    0.2614   55.4272 H       1  ZINC000281257088    0.0600
@<TRIPOS>BOND
     1     1     2    1
     2     1    29    1
     3     1    30    1
     4     1    31    1
     5     2    13    1
     6     2     3    2
     7     3     4    1
     8     4     5    1
     9     4    11    1
    10     5     6    1
    11     5    32    1
    12     5    33    1
    13     6     7    1
    14     6    34    1
    15     6    35    1
    16     7     8    1
    17     7     9    2
    18     7    10    2
    19     8    36    1
    20     8    37    1
    21     8    38    1
    22    11    12    1
    23    11    13    2
    24    12    39    1
    25    12    40    1
    26    12    41    1
    27    13    14    1
    28    14    15    1
    29    14    42    1
    30    14    43    1
    31    15    16    1
    32    15    44    1
    33    16    17    1
    34    16    18    1
    35    16    25    1
    36    18    24   ar
    37    18    19   ar
    38    19    20   ar
    39    19    45    1
    40    20    21   ar
    41    20    46    1
    42    21    22    1
    43    21    23   ar
    44    23    24   ar
    45    23    47    1
    46    24    48    1
    47    25    26    1
    48    25    27    1
    49    25    28    1
    50    26    49    1
    51    26    50    1
    52    26    51    1
    53    27    52    1
    54    27    53    1
    55    27    54    1
    56    28    55    1
    57    28    56    1
    58    28    57    1
@<TRIPOS>SUBSTRUCTURE
     1 ZINC000281257088        1 TEMP              0 ****  ****    0 ROOT


##########                                Name:    ZINC000847397179
##########                DOCK_Rotatable_Bonds:                   9
##########                         Heavy_Atoms:                  25
##########                    Molecular_Weight:             350.461
##########                DOCK_Rotatable_Bonds:                   9
##########                       Formal_Charge:          0.00999979
##########                     HBond_Acceptors:                   7
##########                        HBond_Donors:                   2
##########                         Heavy_Atoms:                  25
##########                          Grid_Score:          -25.300722
##########                     Grid_vdw_energy:          -24.279423
##########                      Grid_es_energy:           -1.021299
##########           Internal_energy_repulsive:           85.275879

@<TRIPOS>MOLECULE
ZINC000847397179
 55 56 1 0 0
SMALL
USER_CHARGES


@<TRIPOS>ATOM
      1 C1         -7.5049    4.6742   54.7590 C.3     1  ZINC000847397179   -0.1500
      2 C2         -6.4859    3.8341   55.5314 C.3     1  ZINC000847397179   -0.1000
      3 H3         -5.9636    4.4662   56.2495 H       1  ZINC000847397179    0.0900
      4 C4         -5.4756    3.2313   54.5532 C.3     1  ZINC000847397179   -0.0200
      5 C5         -4.1633    3.0089   55.2599 C.2     1  ZINC000847397179    0.0100
      6 C6         -4.0087    2.6758   56.5555 C.2     1  ZINC000847397179   -0.0500
      7 N7         -2.6623    2.5734   56.7801 N.pl3   1  ZINC000847397179   -0.5700
      8 C8         -2.0407    2.8476   55.6131 C.2     1  ZINC000847397179    0.1800
      9 N9         -2.9448    3.1023   54.7072 N.2     1  ZINC000847397179   -0.4900
     10 C10        -7.1994    2.7263   56.2628 C.2     1  ZINC000847397179    0.5200
     11 O11        -7.6075    1.7611   55.6523 O.2     1  ZINC000847397179   -0.5300
     12 N12        -7.3841    2.8083   57.5953 N.am    1  ZINC000847397179   -0.7400
     13 C13        -8.0793    1.7323   58.3060 C.3     1  ZINC000847397179    0.1200
     14 C14        -8.4685    2.2135   59.7052 C.3     1  ZINC000847397179    0.1500
     15 H15        -7.5689    2.3803   60.2976 H       1  ZINC000847397179    0.0800
     16 C16        -9.2616    3.5197   59.5968 C.3     1  ZINC000847397179   -0.1300
     17 C17        -9.7665    3.9220   60.9844 C.3     1  ZINC000847397179   -0.1200
     18 C18       -10.6980    2.8347   61.5251 C.3     1  ZINC000847397179   -0.1400
     19 C19        -9.9212    1.5208   61.6554 C.3     1  ZINC000847397179    0.1100
     20 N20        -9.3079    1.2002   60.3589 N.am    1  ZINC000847397179   -0.5900
     21 C21        -9.5156    0.0017   59.7786 C.2     1  ZINC000847397179    0.6500
     22 O22        -9.0028   -0.2513   58.7064 O.2     1  ZINC000847397179   -0.5500
     23 O23       -10.2913   -0.9154   60.3868 O.3     1  ZINC000847397179   -0.3600
     24 C24       -11.5468   -1.2509   59.7392 C.3     1  ZINC000847397179    0.1400
     25 C25       -12.1929    0.0220   59.1887 C.3     1  ZINC000847397179   -0.1800
     26 C26       -11.2833   -2.2268   58.5906 C.3     1  ZINC000847397179   -0.1400
     27 C27       -12.4871   -1.9016   60.7558 C.3     1  ZINC000847397179   -0.1800
     28 H28        -8.0272    4.0421   54.0408 H       1  ZINC000847397179    0.0500
     29 H29        -8.2247    5.1036   55.4559 H       1  ZINC000847397179    0.0500
     30 H30        -6.9888    5.4754   54.2299 H       1  ZINC000847397179    0.1000
     31 H31        -5.8538    2.2792   54.1809 H       1  ZINC000847397179    0.0800
     32 H32        -5.3269    3.9149   53.7173 H       1  ZINC000847397179    0.0800
     33 H33        -4.7956    2.5198   57.2785 H       1  ZINC000847397179    0.1800
     34 H34        -2.2346    2.3463   57.6206 H       1  ZINC000847397179    0.4200
     35 H35        -0.9723    2.8516   55.4547 H       1  ZINC000847397179    0.2100
     36 H36        -7.0567    3.5797   58.0837 H       1  ZINC000847397179    0.3900
     37 H37        -8.9773    1.4536   57.7547 H       1  ZINC000847397179    0.0800
     38 H38        -7.4211    0.8674   58.3893 H       1  ZINC000847397179    0.1000
     39 H39        -8.6168    4.3052   59.2025 H       1  ZINC000847397179    0.0800
     40 H40       -10.1105    3.3755   58.9285 H       1  ZINC000847397179    0.0700
     41 H41        -8.9185    4.0419   61.6587 H       1  ZINC000847397179    0.0700
     42 H42       -10.3103    4.8640   60.9139 H       1  ZINC000847397179    0.0700
     43 H43       -11.0757    3.1325   62.5032 H       1  ZINC000847397179    0.0800
     44 H44       -11.5334    2.6969   60.8386 H       1  ZINC000847397179    0.0700
     45 H45        -9.1414    1.6305   62.4089 H       1  ZINC000847397179    0.0700
     46 H46       -10.6025    0.7208   61.9452 H       1  ZINC000847397179    0.0900
     47 H47       -11.5231    0.4857   58.4645 H       1  ZINC000847397179    0.0600
     48 H48       -13.1355   -0.2298   58.7026 H       1  ZINC000847397179    0.0700
     49 H49       -12.3806    0.7173   60.0070 H       1  ZINC000847397179    0.0900
     50 H50       -10.8231   -3.1337   58.9828 H       1  ZINC000847397179    0.0700
     51 H51       -12.2259   -2.4786   58.1045 H       1  ZINC000847397179    0.0800
     52 H52       -10.6135   -1.7633   57.8664 H       1  ZINC000847397179    0.0700
     53 H53       -12.6748   -1.2063   61.5740 H       1  ZINC000847397179    0.0900
     54 H54       -13.4296   -2.1535   60.2696 H       1  ZINC000847397179    0.0700
     55 H55       -12.0268   -2.8085   61.1479 H       1  ZINC000847397179    0.0600
@<TRIPOS>BOND
     1     1     2    1
     2     1    28    1
     3     1    29    1
     4     1    30    1
     5     2     3    1
     6     2     4    1
     7     2    10    1
     8     4     5    1
     9     4    31    1
    10     4    32    1
    11     5     9    1
    12     5     6    2
    13     6     7    1
    14     6    33    1
    15     7     8    1
    16     7    34    1
    17     8     9    2
    18     8    35    1
    19    10    11    2
    20    10    12   am
    21    12    13    1
    22    12    36    1
    23    13    14    1
    24    13    37    1
    25    13    38    1
    26    14    15    1
    27    14    20    1
    28    14    16    1
    29    16    17    1
    30    16    39    1
    31    16    40    1
    32    17    18    1
    33    17    41    1
    34    17    42    1
    35    18    19    1
    36    18    43    1
    37    18    44    1
    38    19    20    1
    39    19    45    1
    40    19    46    1
    41    20    21   am
    42    21    22    2
    43    21    23    1
    44    23    24    1
    45    24    25    1
    46    24    26    1
    47    24    27    1
    48    25    47    1
    49    25    48    1
    50    25    49    1
    51    26    50    1
    52    26    51    1
    53    26    52    1
    54    27    53    1
    55    27    54    1
    56    27    55    1
@<TRIPOS>SUBSTRUCTURE
     1 ZINC000847397179        1 TEMP              0 ****  ****    0 ROOT


##########                                Name:    ZINC001193456967
##########                DOCK_Rotatable_Bonds:                   3
##########                         Heavy_Atoms:                  27
##########                    Molecular_Weight:             392.451
##########                DOCK_Rotatable_Bonds:                   3
##########                       Formal_Charge:           0.0300002
##########                     HBond_Acceptors:                   8
##########                        HBond_Donors:                   0
##########                         Heavy_Atoms:                  27
##########                          Grid_Score:          -25.256260
##########                     Grid_vdw_energy:          -25.549116
##########                      Grid_es_energy:            0.292856
##########           Internal_energy_repulsive:           36.270042

@<TRIPOS>MOLECULE
ZINC001193456967
 48 50 1 0 0
SMALL
USER_CHARGES


@<TRIPOS>ATOM
      1 C1        -16.7662   -3.7783   58.7034 C.3     1  ZINC001193456967   -0.1400
      2 C2        -15.3283   -3.3343   58.7824 C.ar    1  ZINC001193456967    0.0300
      3 C3        -14.8999   -2.5657   59.8484 C.ar    1  ZINC001193456967   -0.1400
      4 C4        -13.5807   -2.1583   59.9208 C.ar    1  ZINC001193456967    0.0300
      5 C5        -12.6902   -2.5200   58.9276 C.ar    1  ZINC001193456967   -0.6900
      6 S6        -11.0091   -2.0004   59.0196 S.o2    1  ZINC001193456967    2.7100
      7 O7        -10.7832   -1.6087   60.3666 O.2     1  ZINC001193456967   -0.9300
      8 O8        -10.2434   -3.0008   58.3622 O.2     1  ZINC001193456967   -0.9400
      9 N9        -10.8695   -0.6277   58.1037 N.am    1  ZINC001193456967   -1.0000
     10 C10       -11.1555   -0.5244   56.6611 C.3     1  ZINC001193456967    0.1100
     11 C11       -10.3194    0.6863   56.1768 C.3     1  ZINC001193456967   -0.1200
     12 C12       -10.4373    1.6503   57.3868 C.3     1  ZINC001193456967   -0.0500
     13 H13       -11.3685    2.2151   57.3406 H       1  ZINC001193456967    0.1000
     14 C14        -9.2537    2.5813   57.4441 C.ar    1  ZINC001193456967   -0.0800
     15 C15        -7.9957    2.1210   57.1023 C.ar    1  ZINC001193456967   -0.0800
     16 C16        -6.9095    2.9738   57.1546 C.ar    1  ZINC001193456967   -0.1500
     17 C17        -7.0816    4.2898   57.5490 C.ar    1  ZINC001193456967    0.1000
     18 F18        -6.0205    5.1245   57.6000 F       1  ZINC001193456967   -0.1400
     19 C19        -8.3420    4.7498   57.8907 C.ar    1  ZINC001193456967   -0.1500
     20 C20        -9.4275    3.8965   57.8330 C.ar    1  ZINC001193456967   -0.0800
     21 C21       -10.4459    0.6913   58.5959 C.3     1  ZINC001193456967    0.1900
     22 C22       -11.4262    1.1986   59.6555 C.3     1  ZINC001193456967   -0.1800
     23 C23        -9.0395    0.5903   59.1899 C.3     1  ZINC001193456967   -0.1800
     24 C24       -13.1184   -3.2900   57.8620 C.ar    1  ZINC001193456967    0.0400
     25 C25       -14.4363   -3.7004   57.7916 C.ar    1  ZINC001193456967   -0.0600
     26 N26       -14.8948   -4.5247   56.6509 N.pl3   1  ZINC001193456967    0.0200
     27 O27       -15.7095   -5.4124   56.8295 O.2     1  ZINC001193456967   -0.1400
     28 O28       -14.4573   -4.3154   55.5336 O.2     1  ZINC001193456967   -0.1500
     29 H29       -16.8605   -4.7807   59.1212 H       1  ZINC001193456967    0.1100
     30 H30       -17.3912   -3.0883   59.2703 H       1  ZINC001193456967    0.0900
     31 H31       -17.0870   -3.7872   57.6618 H       1  ZINC001193456967    0.0800
     32 H32       -15.5957   -2.2831   60.6245 H       1  ZINC001193456967    0.1600
     33 H33       -13.2461   -1.5572   60.7533 H       1  ZINC001193456967    0.1600
     34 H34       -10.8417   -1.4325   56.1463 H       1  ZINC001193456967    0.0900
     35 H35       -12.2176   -0.3421   56.4970 H       1  ZINC001193456967    0.0700
     36 H36        -9.2816    0.4007   56.0046 H       1  ZINC001193456967    0.0900
     37 H37       -10.7551    1.1287   55.2809 H       1  ZINC001193456967    0.0900
     38 H38        -7.8617    1.0944   56.7947 H       1  ZINC001193456967    0.1400
     39 H39        -5.9267    2.6137   56.8881 H       1  ZINC001193456967    0.1400
     40 H40        -8.4773    5.7761   58.1988 H       1  ZINC001193456967    0.1400
     41 H41       -10.4108    4.2551   58.0992 H       1  ZINC001193456967    0.1300
     42 H42       -12.4281    1.2487   59.2291 H       1  ZINC001193456967    0.0700
     43 H43       -11.4269    0.5167   60.5059 H       1  ZINC001193456967    0.0600
     44 H44       -11.1219    2.1916   59.9862 H       1  ZINC001193456967    0.0800
     45 H45        -8.6683    1.5897   59.4168 H       1  ZINC001193456967    0.0800
     46 H46        -9.0731   -0.0011   60.1048 H       1  ZINC001193456967    0.0900
     47 H47        -8.3752    0.1104   58.4712 H       1  ZINC001193456967    0.0700
     48 H48       -12.4224   -3.5729   57.0861 H       1  ZINC001193456967    0.1600
@<TRIPOS>BOND
     1     1     2    1
     2     1    29    1
     3     1    30    1
     4     1    31    1
     5     2    25   ar
     6     2     3   ar
     7     3     4   ar
     8     3    32    1
     9     4     5   ar
    10     4    33    1
    11     5     6    1
    12     5    24   ar
    13     6     7    2
    14     6     8    2
    15     6     9   am
    16     9    21    1
    17     9    10    1
    18    10    11    1
    19    10    34    1
    20    10    35    1
    21    11    12    1
    22    11    36    1
    23    11    37    1
    24    12    13    1
    25    12    14    1
    26    12    21    1
    27    14    20   ar
    28    14    15   ar
    29    15    16   ar
    30    15    38    1
    31    16    17   ar
    32    16    39    1
    33    17    18    1
    34    17    19   ar
    35    19    20   ar
    36    19    40    1
    37    20    41    1
    38    21    22    1
    39    21    23    1
    40    22    42    1
    41    22    43    1
    42    22    44    1
    43    23    45    1
    44    23    46    1
    45    23    47    1
    46    24    25   ar
    47    24    48    1
    48    25    26    1
    49    26    27    2
    50    26    28    2
@<TRIPOS>SUBSTRUCTURE
     1 ZINC001193456967        1 TEMP              0 ****  ****    0 ROOT


##########                                Name:    ZINC000942890482
##########                DOCK_Rotatable_Bonds:                   8
##########                         Heavy_Atoms:                  25
##########                    Molecular_Weight:             346.445
##########                DOCK_Rotatable_Bonds:                   8
##########                       Formal_Charge:          -0.0100004
##########                     HBond_Acceptors:                   5
##########                        HBond_Donors:                   0
##########                         Heavy_Atoms:                  25
##########                          Grid_Score:          -25.247837
##########                     Grid_vdw_energy:          -25.442375
##########                      Grid_es_energy:            0.194538
##########           Internal_energy_repulsive:           20.705994

@<TRIPOS>MOLECULE
ZINC000942890482
 52 54 1 0 0
SMALL
USER_CHARGES


@<TRIPOS>ATOM
      1 C1        -14.0804   -3.1293   56.1265 C.3     1  ZINC000942890482   -0.1700
      2 C2        -14.0286   -1.6735   56.5945 C.3     1  ZINC000942890482    0.1000
      3 N3        -12.7567   -1.4253   57.2778 N.am    1  ZINC000942890482   -0.6000
      4 C4        -12.5452   -1.9264   58.5111 C.2     1  ZINC000942890482    0.5700
      5 O5        -13.4100   -2.5843   59.0562 O.2     1  ZINC000942890482   -0.5100
      6 C6        -11.2628   -1.6761   59.2001 C.ar    1  ZINC000942890482   -0.1400
      7 C7        -10.1544   -2.4818   58.9319 C.ar    1  ZINC000942890482   -0.0600
      8 C8         -8.9597   -2.2435   59.5773 C.ar    1  ZINC000942890482   -0.1600
      9 C9         -8.8578   -1.2062   60.4915 C.ar    1  ZINC000942890482    0.1300
     10 F10        -7.6848   -0.9770   61.1214 F       1  ZINC000942890482   -0.1300
     11 C11        -9.9554   -0.4028   60.7613 C.ar    1  ZINC000942890482   -0.1600
     12 C12       -11.1531   -0.6291   60.1181 C.ar    1  ZINC000942890482   -0.0100
     13 C13       -12.3450    0.2448   60.4122 C.3     1  ZINC000942890482   -0.1200
     14 C14       -11.7147   -0.6323   56.6208 C.3     1  ZINC000942890482    0.1400
     15 H15       -10.7956   -0.6368   57.2067 H       1  ZINC000942890482    0.1100
     16 C16       -12.2009    0.8178   56.3599 C.3     1  ZINC000942890482   -0.1500
     17 C17       -11.3562    1.2520   55.1435 C.3     1  ZINC000942890482    0.1100
     18 N18       -10.9110    0.0277   54.4619 N.am    1  ZINC000942890482   -0.6200
     19 C19       -10.1313   -0.0207   53.3636 C.2     1  ZINC000942890482    0.5300
     20 O20        -9.8257   -1.0917   52.8836 O.2     1  ZINC000942890482   -0.5400
     21 C21        -9.6391    1.2561   52.7322 C.3     1  ZINC000942890482   -0.1300
     22 C22        -8.2240    1.0445   52.1903 C.3     1  ZINC000942890482   -0.0700
     23 C23        -7.7636    2.3075   51.4597 C.3     1  ZINC000942890482   -0.1600
     24 C24        -6.6388    3.1236   52.0999 C.3     1  ZINC000942890482   -0.1800
     25 C25        -6.3635    2.2960   50.8427 C.3     1  ZINC000942890482   -0.1800
     26 C26       -11.4571   -1.1390   55.1797 C.3     1  ZINC000942890482    0.0900
     27 H27       -13.2557   -3.3198   55.4398 H       1  ZINC000942890482    0.0600
     28 H28       -13.9956   -3.7913   56.9884 H       1  ZINC000942890482    0.0600
     29 H29       -15.0267   -3.3141   55.6182 H       1  ZINC000942890482    0.0700
     30 H30       -14.1133   -1.0117   55.7327 H       1  ZINC000942890482    0.0900
     31 H31       -14.8532   -1.4831   57.2814 H       1  ZINC000942890482    0.0900
     32 H32       -10.2328   -3.2903   58.2201 H       1  ZINC000942890482    0.1400
     33 H33        -8.1019   -2.8662   59.3709 H       1  ZINC000942890482    0.1400
     34 H34        -9.8706    0.4040   61.4743 H       1  ZINC000942890482    0.1400
     35 H35       -12.3101    1.1318   59.7796 H       1  ZINC000942890482    0.0900
     36 H36       -13.2611   -0.3100   60.2099 H       1  ZINC000942890482    0.0700
     37 H37       -12.3257    0.5449   61.4600 H       1  ZINC000942890482    0.0700
     38 H38       -13.2632    0.8304   56.1160 H       1  ZINC000942890482    0.1000
     39 H39       -11.9940    1.4546   57.2200 H       1  ZINC000942890482    0.0900
     40 H40       -11.9629    1.8534   54.4665 H       1  ZINC000942890482    0.0700
     41 H41       -10.4916    1.8252   55.4781 H       1  ZINC000942890482    0.0700
     42 H42       -10.3032    1.5364   51.9145 H       1  ZINC000942890482    0.0900
     43 H43        -9.6274    2.0498   53.4791 H       1  ZINC000942890482    0.0900
     44 H44        -7.5457    0.8357   53.0176 H       1  ZINC000942890482    0.0700
     45 H45        -8.2223    0.2030   51.4976 H       1  ZINC000942890482    0.0700
     46 H46        -8.5431    2.8541   50.9288 H       1  ZINC000942890482    0.1000
     47 H47        -6.6782    4.2073   51.9903 H       1  ZINC000942890482    0.0900
     48 H48        -6.2269    2.7607   53.0415 H       1  ZINC000942890482    0.0900
     49 H49        -5.7704    1.3887   50.9574 H       1  ZINC000942890482    0.0900
     50 H50        -6.2218    2.8353   49.9062 H       1  ZINC000942890482    0.0900
     51 H51       -10.7328   -1.9534   55.1866 H       1  ZINC000942890482    0.0800
     52 H52       -12.3905   -1.4643   54.7203 H       1  ZINC000942890482    0.0900
@<TRIPOS>BOND
     1     1     2    1
     2     1    27    1
     3     1    28    1
     4     1    29    1
     5     2     3    1
     6     2    30    1
     7     2    31    1
     8     3     4   am
     9     3    14    1
    10     4     5    2
    11     4     6    1
    12     6    12   ar
    13     6     7   ar
    14     7     8   ar
    15     7    32    1
    16     8     9   ar
    17     8    33    1
    18     9    10    1
    19     9    11   ar
    20    11    12   ar
    21    11    34    1
    22    12    13    1
    23    13    35    1
    24    13    36    1
    25    13    37    1
    26    14    15    1
    27    14    26    1
    28    14    16    1
    29    16    17    1
    30    16    38    1
    31    16    39    1
    32    17    18    1
    33    17    40    1
    34    17    41    1
    35    18    19   am
    36    18    26    1
    37    19    20    2
    38    19    21    1
    39    21    22    1
    40    21    42    1
    41    21    43    1
    42    22    23    1
    43    22    44    1
    44    22    45    1
    45    23    25    1
    46    23    24    1
    47    23    46    1
    48    24    25    1
    49    24    47    1
    50    24    48    1
    51    25    49    1
    52    25    50    1
    53    26    51    1
    54    26    52    1
@<TRIPOS>SUBSTRUCTURE
     1 ZINC000942890482        1 TEMP              0 ****  ****    0 ROOT


##########                                Name:    ZINC001110536231
##########                DOCK_Rotatable_Bonds:                   8
##########                         Heavy_Atoms:                  24
##########                    Molecular_Weight:             329.442
##########                DOCK_Rotatable_Bonds:                   8
##########                       Formal_Charge:          -0.0400001
##########                     HBond_Acceptors:                   5
##########                        HBond_Donors:                   1
##########                         Heavy_Atoms:                  24
##########                          Grid_Score:          -25.232880
##########                     Grid_vdw_energy:          -25.550882
##########                      Grid_es_energy:            0.318003
##########           Internal_energy_repulsive:           25.168972

@<TRIPOS>MOLECULE
ZINC001110536231
 51 53 1 0 0
SMALL
USER_CHARGES


@<TRIPOS>ATOM
      1 C1        -11.8505   -1.8021   59.8191 C.3     1  ZINC001110536231   -0.1300
      2 C2        -10.7003   -2.0328   58.8369 C.3     1  ZINC001110536231   -0.1000
      3 C3         -9.6297   -0.9969   59.0648 C.2     1  ZINC001110536231   -0.0200
      4 C4         -8.5738   -1.2233   60.1160 C.3     1  ZINC001110536231   -0.1300
      5 C5         -9.6166    0.1169   58.3382 C.2     1  ZINC001110536231   -0.2400
      6 C6        -10.6472    0.3378   57.3121 C.2     1  ZINC001110536231    0.5400
      7 O7        -11.7358    0.7781   57.6284 O.2     1  ZINC001110536231   -0.5300
      8 N8        -10.3850    0.0522   56.0213 N.am    1  ZINC001110536231   -0.7300
      9 C9        -11.4108    0.2738   54.9991 C.3     1  ZINC001110536231    0.1100
     10 H10       -12.4034    0.2856   55.4494 H       1  ZINC001110536231    0.1000
     11 C11       -11.3253   -0.8103   53.8969 C.3     1  ZINC001110536231   -0.1600
     12 C12       -11.0130    0.0059   52.6066 C.3     1  ZINC001110536231    0.0500
     13 H13       -10.5638   -0.5588   51.7895 H       1  ZINC001110536231    0.1200
     14 C14       -12.3421    0.7440   52.2635 C.3     1  ZINC001110536231   -0.1200
     15 C15       -12.4471    1.8299   53.3621 C.3     1  ZINC001110536231   -0.1100
     16 C16       -11.1412    1.6024   54.2303 C.3     1  ZINC001110536231    0.0400
     17 H17       -10.8207    2.4540   54.8304 H       1  ZINC001110536231    0.1200
     18 N18       -10.1771    1.1260   53.1692 N.3     1  ZINC001110536231   -0.4900
     19 C19        -8.9358    0.6235   53.7731 C.3     1  ZINC001110536231    0.0600
     20 C20        -7.7584    1.0663   52.9432 C.ar    1  ZINC001110536231    0.0100
     21 C21        -7.4047    0.3801   51.7899 C.ar    1  ZINC001110536231   -0.2100
     22 C22        -6.3205    0.8126   51.0522 C.ar    1  ZINC001110536231    0.1400
     23 N23        -5.6216    1.8656   51.4308 N.ar    1  ZINC001110536231   -0.5400
     24 C24        -5.9277    2.5454   52.5235 C.ar    1  ZINC001110536231    0.3200
     25 O25        -5.1819    3.6228   52.8755 O.3     1  ZINC001110536231   -0.3100
     26 C26        -4.8346    4.5392   51.8354 C.3     1  ZINC001110536231    0.0400
     27 C27        -7.0085    2.1703   53.3108 C.ar    1  ZINC001110536231   -0.1700
     28 H28       -12.6247   -2.5514   59.6544 H       1  ZINC001110536231    0.0500
     29 H29       -11.4780   -1.8831   60.8403 H       1  ZINC001110536231    0.0700
     30 H30       -12.2681   -0.8076   59.6626 H       1  ZINC001110536231    0.0400
     31 H31       -10.2826   -3.0274   58.9936 H       1  ZINC001110536231    0.0900
     32 H32       -11.0728   -1.9518   57.8158 H       1  ZINC001110536231    0.0600
     33 H33        -7.7234   -1.7402   59.6714 H       1  ZINC001110536231    0.0800
     34 H34        -8.2471   -0.2632   60.5155 H       1  ZINC001110536231    0.0700
     35 H35        -8.9873   -1.8302   60.9215 H       1  ZINC001110536231    0.0700
     36 H36        -8.8493    0.8592   58.5016 H       1  ZINC001110536231    0.1200
     37 H37        -9.5172   -0.3001   55.7691 H       1  ZINC001110536231    0.4000
     38 H38       -10.5196   -1.5126   54.1111 H       1  ZINC001110536231    0.0700
     39 H39       -12.2762   -1.3339   53.7990 H       1  ZINC001110536231    0.0800
     40 H40       -12.2831    1.2016   51.2760 H       1  ZINC001110536231    0.0700
     41 H41       -13.1874    0.0581   52.3198 H       1  ZINC001110536231    0.0700
     42 H42       -12.4402    2.8258   52.9192 H       1  ZINC001110536231    0.0800
     43 H43       -13.3445    1.6823   53.9630 H       1  ZINC001110536231    0.0700
     44 H44        -8.8373    1.0194   54.7839 H       1  ZINC001110536231    0.0900
     45 H45        -8.9648   -0.4654   53.8106 H       1  ZINC001110536231    0.0700
     46 H46        -7.9711   -0.4832   51.4731 H       1  ZINC001110536231    0.1300
     47 H47        -6.0409    0.2819   50.1541 H       1  ZINC001110536231    0.1600
     48 H48        -4.2396    5.3523   52.2514 H       1  ZINC001110536231    0.1000
     49 H49        -4.2563    4.0196   51.0715 H       1  ZINC001110536231    0.0600
     50 H50        -5.7432    4.9448   51.3902 H       1  ZINC001110536231    0.0600
     51 H51        -7.2558    2.7277   54.2021 H       1  ZINC001110536231    0.1400
@<TRIPOS>BOND
     1     1     2    1
     2     1    28    1
     3     1    29    1
     4     1    30    1
     5     2     3    1
     6     2    31    1
     7     2    32    1
     8     3     4    1
     9     3     5    2
    10     4    33    1
    11     4    34    1
    12     4    35    1
    13     5     6    1
    14     5    36    1
    15     6     7    2
    16     6     8   am
    17     8     9    1
    18     8    37    1
    19     9    10    1
    20     9    16    1
    21     9    11    1
    22    11    12    1
    23    11    38    1
    24    11    39    1
    25    12    13    1
    26    12    18    1
    27    12    14    1
    28    14    15    1
    29    14    40    1
    30    14    41    1
    31    15    16    1
    32    15    42    1
    33    15    43    1
    34    16    17    1
    35    16    18    1
    36    18    19    1
    37    19    20    1
    38    19    44    1
    39    19    45    1
    40    20    27   ar
    41    20    21   ar
    42    21    22   ar
    43    21    46    1
    44    22    23   ar
    45    22    47    1
    46    23    24   ar
    47    24    25    1
    48    24    27   ar
    49    25    26    1
    50    26    48    1
    51    26    49    1
    52    26    50    1
    53    27    51    1
@<TRIPOS>SUBSTRUCTURE
     1 ZINC001110536231        1 TEMP              0 ****  ****    0 ROOT


##########                                Name:    ZINC001122903793
##########                DOCK_Rotatable_Bonds:                   4
##########                         Heavy_Atoms:                  25
##########                    Molecular_Weight:             399.968
##########                DOCK_Rotatable_Bonds:                   4
##########                       Formal_Charge:           0.0100003
##########                     HBond_Acceptors:                   9
##########                        HBond_Donors:                   0
##########                         Heavy_Atoms:                  25
##########                          Grid_Score:          -25.225145
##########                     Grid_vdw_energy:          -24.214708
##########                      Grid_es_energy:           -1.010437
##########           Internal_energy_repulsive:           11.753072

@<TRIPOS>MOLECULE
ZINC001122903793
 47 50 1 0 0
SMALL
USER_CHARGES


@<TRIPOS>ATOM
      1 C1        -14.9920    0.5884   53.3780 C.3     1  ZINC001122903793   -0.1400
      2 C2        -13.4955    0.8194   53.5969 C.3     1  ZINC001122903793   -0.0400
      3 H3        -13.3327    1.8270   53.9796 H       1  ZINC001122903793    0.1000
      4 S4        -12.6084    0.6129   52.0224 S.3     1  ZINC001122903793   -0.2500
      5 C5        -10.8717    0.6526   52.5618 C.3     1  ZINC001122903793   -0.0800
      6 C6        -10.6943   -0.3528   53.7047 C.3     1  ZINC001122903793    0.0700
      7 N7        -11.5330    0.0330   54.8416 N.3     1  ZINC001122903793   -0.4800
      8 C8        -11.1148   -0.5955   56.0031 C.2     1  ZINC001122903793    0.3700
      9 N9        -11.0628   -1.8904   56.2115 N.2     1  ZINC001122903793   -0.2900
     10 N10       -10.6275   -2.1311   57.3964 N.2     1  ZINC001122903793   -0.2400
     11 C11       -10.3740   -1.0012   58.0190 C.2     1  ZINC001122903793    0.2600
     12 C12        -9.8616   -0.8531   59.3910 C.2     1  ZINC001122903793   -0.1600
     13 C13       -10.5703   -1.0309   60.5312 C.2     1  ZINC001122903793    0.1600
     14 Cl14      -12.2485   -1.4750   60.5397 Cl      1  ZINC001122903793    0.0300
     15 N15        -9.8769   -0.8378   61.6309 N.2     1  ZINC001122903793   -0.4600
     16 C16        -8.6345   -0.5100   61.4982 C.2     1  ZINC001122903793    0.0300
     17 S17        -8.2146   -0.4205   59.8435 S.3     1  ZINC001122903793    0.2200
     18 N18       -10.6742    0.0173   57.1424 N.pl3   1  ZINC001122903793   -0.4600
     19 C19       -10.5535    1.4574   57.3833 C.3     1  ZINC001122903793    0.1100
     20 C20        -9.4519    2.0331   56.4914 C.3     1  ZINC001122903793    0.0700
     21 H21        -9.7055    1.8940   55.4405 H       1  ZINC001122903793    0.0800
     22 C22        -9.2417    3.5371   56.7994 C.3     1  ZINC001122903793   -0.1500
     23 C23        -7.7728    3.7309   56.3337 C.3     1  ZINC001122903793   -0.1500
     24 C24        -7.1348    2.3701   56.6870 C.3     1  ZINC001122903793    0.0500
     25 O25        -8.1930    1.4080   56.7874 O.3     1  ZINC001122903793   -0.3700
     26 C26       -12.9578   -0.2059   54.6011 C.3     1  ZINC001122903793    0.1000
     27 H27       -13.0936   -1.2086   54.1959 H       1  ZINC001122903793    0.0800
     28 C28       -13.7237   -0.0824   55.9198 C.3     1  ZINC001122903793   -0.1500
     29 H29       -15.5201    0.7059   54.3242 H       1  ZINC001122903793    0.0800
     30 H30       -15.3702    1.3144   52.6582 H       1  ZINC001122903793    0.0700
     31 H31       -15.1519   -0.4197   52.9954 H       1  ZINC001122903793    0.0700
     32 H32       -10.2234    0.3791   51.7294 H       1  ZINC001122903793    0.1200
     33 H33       -10.6199    1.6536   52.9122 H       1  ZINC001122903793    0.0900
     34 H34       -10.9838   -1.3460   53.3615 H       1  ZINC001122903793    0.0700
     35 H35        -9.6493   -0.3683   54.0143 H       1  ZINC001122903793    0.0900
     36 H36        -7.9557   -0.3233   62.3171 H       1  ZINC001122903793    0.2100
     37 H37       -11.5005    1.9450   57.1518 H       1  ZINC001122903793    0.1200
     38 H38       -10.3018    1.6308   58.4296 H       1  ZINC001122903793    0.1000
     39 H39        -9.9235    4.1564   56.2168 H       1  ZINC001122903793    0.0900
     40 H40        -9.3453    3.7378   57.8658 H       1  ZINC001122903793    0.0800
     41 H41        -7.7272    3.9136   55.2601 H       1  ZINC001122903793    0.0800
     42 H42        -7.2939    4.5391   56.8866 H       1  ZINC001122903793    0.0900
     43 H43        -6.4397    2.0726   55.9018 H       1  ZINC001122903793    0.0700
     44 H44        -6.6094    2.4442   57.6391 H       1  ZINC001122903793    0.0700
     45 H45       -13.5864    0.9192   56.3273 H       1  ZINC001122903793    0.0600
     46 H46       -14.7844   -0.2600   55.7419 H       1  ZINC001122903793    0.0800
     47 H47       -13.3461   -0.8184   56.6295 H       1  ZINC001122903793    0.0600
@<TRIPOS>BOND
     1     1     2    1
     2     1    29    1
     3     1    30    1
     4     1    31    1
     5     2     3    1
     6     2    26    1
     7     2     4    1
     8     4     5    1
     9     5     6    1
    10     5    32    1
    11     5    33    1
    12     6     7    1
    13     6    34    1
    14     6    35    1
    15     7     8    1
    16     7    26    1
    17     8    18    1
    18     8     9    2
    19     9    10    1
    20    10    11    2
    21    11    12    1
    22    11    18    1
    23    12    17    1
    24    12    13    2
    25    13    14    1
    26    13    15    1
    27    15    16    2
    28    16    17    1
    29    16    36    1
    30    18    19    1
    31    19    20    1
    32    19    37    1
    33    19    38    1
    34    20    21    1
    35    20    25    1
    36    20    22    1
    37    22    23    1
    38    22    39    1
    39    22    40    1
    40    23    24    1
    41    23    41    1
    42    23    42    1
    43    24    25    1
    44    24    43    1
    45    24    44    1
    46    26    27    1
    47    26    28    1
    48    28    45    1
    49    28    46    1
    50    28    47    1
@<TRIPOS>SUBSTRUCTURE
     1 ZINC001122903793        1 TEMP              0 ****  ****    0 ROOT


##########                                Name:    ZINC000653668607
##########                DOCK_Rotatable_Bonds:                   5
##########                         Heavy_Atoms:                  28
##########                    Molecular_Weight:             379.459
##########                DOCK_Rotatable_Bonds:                   5
##########                       Formal_Charge:          0.00999918
##########                     HBond_Acceptors:                   6
##########                        HBond_Donors:                   2
##########                         Heavy_Atoms:                  28
##########                          Grid_Score:          -25.207165
##########                     Grid_vdw_energy:          -24.156858
##########                      Grid_es_energy:           -1.050306
##########           Internal_energy_repulsive:            6.039809

@<TRIPOS>MOLECULE
ZINC000653668607
 53 56 1 0 0
SMALL
USER_CHARGES


@<TRIPOS>ATOM
      1 C1        -11.1938    5.0634   46.5853 C.3     1  ZINC000653668607    0.0300
      2 O2        -11.0082    3.6530   46.4499 O.3     1  ZINC000653668607   -0.3200
      3 C3        -12.1213    2.8757   46.5097 C.ar    1  ZINC000653668607    0.1300
      4 C4        -12.7274    2.4349   45.3423 C.ar    1  ZINC000653668607   -0.2000
      5 C5        -13.8547    1.6442   45.4140 C.ar    1  ZINC000653668607   -0.0800
      6 C6        -14.3897    1.2847   46.6445 C.ar    1  ZINC000653668607   -0.1000
      7 C7        -15.6141    0.4068   46.6462 C.3     1  ZINC000653668607   -0.0800
      8 C8        -16.3120    0.4609   48.0035 C.3     1  ZINC000653668607   -0.1200
      9 C9        -15.2704    0.1850   49.0944 C.3     1  ZINC000653668607   -0.1100
     10 C10       -14.3252    1.3821   49.1717 C.3     1  ZINC000653668607   -0.0600
     11 H11       -14.8639    2.2401   49.5739 H       1  ZINC000653668607    0.1000
     12 C12       -13.1728    1.0473   50.0832 C.2     1  ZINC000653668607    0.5200
     13 O13       -12.3463    0.2285   49.7402 O.2     1  ZINC000653668607   -0.5100
     14 N14       -13.0605    1.6575   51.2796 N.am    1  ZINC000653668607   -0.6700
     15 C15       -11.9905    1.3466   52.1259 C.ar    1  ZINC000653668607    0.1500
     16 C16       -12.1774    0.4758   53.1918 C.ar    1  ZINC000653668607   -0.1100
     17 C17       -11.1212    0.1683   54.0281 C.ar    1  ZINC000653668607   -0.0900
     18 C18        -9.8767    0.7255   53.8072 C.ar    1  ZINC000653668607   -0.1200
     19 C19        -9.6833    1.5977   52.7431 C.ar    1  ZINC000653668607    0.1700
     20 N20        -8.4223    2.1621   52.5202 N.am    1  ZINC000653668607   -0.5800
     21 C21        -7.3736    1.3517   51.8990 C.3     1  ZINC000653668607    0.1100
     22 C22        -6.4240    2.2687   51.1207 C.3     1  ZINC000653668607   -0.1500
     23 C23        -5.8909    3.3421   52.0755 C.3     1  ZINC000653668607    0.1100
     24 N24        -7.0201    4.0446   52.6871 N.am    1  ZINC000653668607   -0.7400
     25 C25        -8.2009    3.4366   52.8752 C.2     1  ZINC000653668607    0.7100
     26 O26        -9.1032    4.0624   53.3973 O.2     1  ZINC000653668607   -0.5800
     27 C27       -10.7400    1.9035   51.8980 C.ar    1  ZINC000653668607   -0.1300
     28 C28       -13.7929    1.7259   47.8050 C.ar    1  ZINC000653668607   -0.0300
     29 C29       -12.6533    2.5150   47.7361 C.ar    1  ZINC000653668607   -0.1500
     30 H30       -11.8449    5.4224   45.7882 H       1  ZINC000653668607    0.0600
     31 H31       -11.6498    5.2788   47.5517 H       1  ZINC000653668607    0.0600
     32 H32       -10.2282    5.5649   46.5194 H       1  ZINC000653668607    0.1000
     33 H33       -12.3183    2.7101   44.3815 H       1  ZINC000653668607    0.1300
     34 H34       -14.3263    1.3014   44.5049 H       1  ZINC000653668607    0.1300
     35 H35       -16.3030    0.7495   45.8740 H       1  ZINC000653668607    0.0800
     36 H36       -15.3197   -0.6210   46.4340 H       1  ZINC000653668607    0.0800
     37 H37       -16.7476    1.4487   48.1534 H       1  ZINC000653668607    0.0700
     38 H38       -17.0952   -0.2962   48.0440 H       1  ZINC000653668607    0.0800
     39 H39       -15.7705    0.0496   50.0535 H       1  ZINC000653668607    0.0700
     40 H40       -14.7058   -0.7131   48.8442 H       1  ZINC000653668607    0.0800
     41 H41       -13.7214    2.3124   51.5539 H       1  ZINC000653668607    0.4100
     42 H42       -13.1494    0.0389   53.3673 H       1  ZINC000653668607    0.1400
     43 H43       -11.2692   -0.5088   54.8563 H       1  ZINC000653668607    0.1300
     44 H44        -9.0531    0.4833   54.4625 H       1  ZINC000653668607    0.1200
     45 H45        -6.8165    0.8221   52.6719 H       1  ZINC000653668607    0.0700
     46 H46        -7.8256    0.6319   51.2166 H       1  ZINC000653668607    0.0900
     47 H47        -5.5929    1.6846   50.7258 H       1  ZINC000653668607    0.1000
     48 H48        -6.9635    2.7432   50.3010 H       1  ZINC000653668607    0.0800
     49 H49        -5.2899    2.8715   52.8536 H       1  ZINC000653668607    0.0700
     50 H50        -5.2780    4.0520   51.5199 H       1  ZINC000653668607    0.0900
     51 H51        -6.9136    4.9698   52.9584 H       1  ZINC000653668607    0.4200
     52 H52       -10.5921    2.5809   51.0700 H       1  ZINC000653668607    0.1300
     53 H53       -12.1807    2.8544   48.6460 H       1  ZINC000653668607    0.1200
@<TRIPOS>BOND
     1     1     2    1
     2     1    30    1
     3     1    31    1
     4     1    32    1
     5     2     3    1
     6     3    29   ar
     7     3     4   ar
     8     4     5   ar
     9     4    33    1
    10     5     6   ar
    11     5    34    1
    12     6    28   ar
    13     6     7    1
    14     7     8    1
    15     7    35    1
    16     7    36    1
    17     8     9    1
    18     8    37    1
    19     8    38    1
    20     9    10    1
    21     9    39    1
    22     9    40    1
    23    10    11    1
    24    10    12    1
    25    10    28    1
    26    12    13    2
    27    12    14   am
    28    14    15    1
    29    14    41    1
    30    15    27   ar
    31    15    16   ar
    32    16    17   ar
    33    16    42    1
    34    17    18   ar
    35    17    43    1
    36    18    19   ar
    37    18    44    1
    38    19    20    1
    39    19    27   ar
    40    20    25   am
    41    20    21    1
    42    21    22    1
    43    21    45    1
    44    21    46    1
    45    22    23    1
    46    22    47    1
    47    22    48    1
    48    23    24    1
    49    23    49    1
    50    23    50    1
    51    24    25   am
    52    24    51    1
    53    25    26    2
    54    27    52    1
    55    28    29   ar
    56    29    53    1
@<TRIPOS>SUBSTRUCTURE
     1 ZINC000653668607        1 TEMP              0 ****  ****    0 ROOT


##########                                Name:    ZINC000836820897
##########                DOCK_Rotatable_Bonds:                   5
##########                         Heavy_Atoms:                  22
##########                    Molecular_Weight:             330.355
##########                DOCK_Rotatable_Bonds:                   5
##########                       Formal_Charge:          -0.0200003
##########                     HBond_Acceptors:                   8
##########                        HBond_Donors:                   1
##########                         Heavy_Atoms:                  22
##########                          Grid_Score:          -25.173824
##########                     Grid_vdw_energy:          -24.393280
##########                      Grid_es_energy:           -0.780545
##########           Internal_energy_repulsive:           11.660387

@<TRIPOS>MOLECULE
ZINC000836820897
 38 40 1 0 0
SMALL
USER_CHARGES


@<TRIPOS>ATOM
      1 O1         -9.4974   -1.7072   59.0663 O.2     1  ZINC000836820897   -0.5200
      2 C2        -10.3476   -1.0392   59.6218 C.2     1  ZINC000836820897    0.5800
      3 C3        -11.7153   -0.9745   59.0671 C.ar    1  ZINC000836820897   -0.1600
      4 C4        -11.9705   -0.2233   57.9182 C.ar    1  ZINC000836820897   -0.0100
      5 C5        -13.2486   -0.1668   57.4045 C.ar    1  ZINC000836820897   -0.1700
      6 C6        -14.2794   -0.8540   58.0265 C.ar    1  ZINC000836820897    0.2200
      7 F7        -15.5301   -0.7953   57.5189 F       1  ZINC000836820897   -0.1100
      8 C8        -14.0313   -1.6021   59.1676 C.ar    1  ZINC000836820897   -0.7200
      9 S9        -15.3471   -2.4735   59.9511 S.o2    1  ZINC000836820897    2.7000
     10 O10       -14.9095   -2.7570   61.2730 O.2     1  ZINC000836820897   -0.9400
     11 O11       -16.5352   -1.7486   59.6646 O.2     1  ZINC000836820897   -0.9400
     12 N12       -15.4935   -3.9337   59.1837 N.am    1  ZINC000836820897   -1.0800
     13 C13       -15.7943   -3.9811   57.7508 C.3     1  ZINC000836820897    0.0700
     14 C14       -14.6553   -3.6662   56.7790 C.3     1  ZINC000836820897   -0.1800
     15 C15       -15.1550   -5.1041   56.9316 C.3     1  ZINC000836820897   -0.1900
     16 C16       -12.7564   -1.6694   59.6867 C.ar    1  ZINC000836820897    0.0600
     17 N17       -10.0442   -0.3621   60.7470 N.am    1  ZINC000836820897   -0.6200
     18 C18       -10.9746    0.4703   61.5234 C.3     1  ZINC000836820897    0.0900
     19 C19       -10.1946    1.0199   62.7364 C.3     1  ZINC000836820897   -0.1600
     20 C20        -9.0247    0.0115   62.8832 C.3     1  ZINC000836820897    0.0800
     21 H21        -9.3393   -0.8743   63.4351 H       1  ZINC000836820897    0.1100
     22 F22        -7.9183    0.6123   63.4931 F       1  ZINC000836820897   -0.1900
     23 C23        -8.7258   -0.3385   61.4063 C.3     1  ZINC000836820897    0.0800
     24 H24       -11.1683    0.3128   57.4331 H       1  ZINC000836820897    0.1500
     25 H25       -13.4472    0.4144   56.5160 H       1  ZINC000836820897    0.1600
     26 H26       -15.3801   -4.7575   59.6831 H       1  ZINC000836820897    0.4200
     27 H27       -16.7982   -3.6624   57.4703 H       1  ZINC000836820897    0.1400
     28 H28       -14.9097   -3.1399   55.8590 H       1  ZINC000836820897    0.1100
     29 H29       -13.6822   -3.4236   57.2059 H       1  ZINC000836820897    0.1000
     30 H30       -14.5107   -5.8077   57.4588 H       1  ZINC000836820897    0.1000
     31 H31       -15.7382   -5.5240   56.1120 H       1  ZINC000836820897    0.1000
     32 H32       -12.5643   -2.2524   60.5753 H       1  ZINC000836820897    0.1600
     33 H33       -11.3346    1.2957   60.9092 H       1  ZINC000836820897    0.0800
     34 H34       -11.8150   -0.1337   61.8658 H       1  ZINC000836820897    0.0800
     35 H35        -9.8170    2.0214   62.5304 H       1  ZINC000836820897    0.0900
     36 H36       -10.8195    1.0184   63.6295 H       1  ZINC000836820897    0.1000
     37 H37        -8.2458   -1.3147   61.3374 H       1  ZINC000836820897    0.1000
     38 H38        -8.0956    0.4278   60.9550 H       1  ZINC000836820897    0.0900
@<TRIPOS>BOND
     1     1     2    2
     2     2     3    1
     3     2    17   am
     4     3    16   ar
     5     3     4   ar
     6     4     5   ar
     7     4    24    1
     8     5     6   ar
     9     5    25    1
    10     6     7    1
    11     6     8   ar
    12     8     9    1
    13     8    16   ar
    14     9    10    2
    15     9    11    2
    16     9    12   am
    17    12    13    1
    18    12    26    1
    19    13    15    1
    20    13    14    1
    21    13    27    1
    22    14    15    1
    23    14    28    1
    24    14    29    1
    25    15    30    1
    26    15    31    1
    27    16    32    1
    28    17    23    1
    29    17    18    1
    30    18    19    1
    31    18    33    1
    32    18    34    1
    33    19    20    1
    34    19    35    1
    35    19    36    1
    36    20    21    1
    37    20    22    1
    38    20    23    1
    39    23    37    1
    40    23    38    1
@<TRIPOS>SUBSTRUCTURE
     1 ZINC000836820897        1 TEMP              0 ****  ****    0 ROOT


##########                                Name:    ZINC000646817380
##########                DOCK_Rotatable_Bonds:                   6
##########                         Heavy_Atoms:                  25
##########                    Molecular_Weight:             347.457
##########                DOCK_Rotatable_Bonds:                   6
##########                       Formal_Charge:           0.0199991
##########                     HBond_Acceptors:                   6
##########                        HBond_Donors:                   1
##########                         Heavy_Atoms:                  25
##########                          Grid_Score:          -25.162634
##########                     Grid_vdw_energy:          -24.400326
##########                      Grid_es_energy:           -0.762308
##########           Internal_energy_repulsive:           56.012260

@<TRIPOS>MOLECULE
ZINC000646817380
 54 56 1 0 0
SMALL
USER_CHARGES


@<TRIPOS>ATOM
      1 C1          0.5457    3.7348   56.7914 C.3     1  ZINC000646817380   -0.1500
      2 C2         -0.2793    2.4713   57.0442 C.3     1  ZINC000646817380   -0.0100
      3 C3         -0.1087    2.0337   58.5003 C.3     1  ZINC000646817380   -0.1500
      4 C4         -1.7337    2.7584   56.7730 C.2     1  ZINC000646817380   -0.0100
      5 C5         -2.5005    3.6909   57.3823 C.2     1  ZINC000646817380   -0.2200
      6 C6         -3.7714    3.5462   56.7644 C.2     1  ZINC000646817380    0.2400
      7 N7         -4.9234    4.2813   57.0381 N.am    1  ZINC000646817380   -0.6100
      8 C8         -6.1293    3.6805   57.0074 C.2     1  ZINC000646817380    0.5200
      9 O9         -6.2121    2.4990   56.7429 O.2     1  ZINC000646817380   -0.4900
     10 C10        -7.3642    4.4688   57.2990 C.2     1  ZINC000646817380    0.5300
     11 O11        -7.4678    5.6071   56.8912 O.2     1  ZINC000646817380   -0.5100
     12 N12        -8.3633    3.9160   58.0149 N.am    1  ZINC000646817380   -0.5800
     13 C13        -9.6276    4.5756   58.3728 C.3     1  ZINC000646817380    0.1000
     14 C14       -10.4461    3.5723   59.2125 C.3     1  ZINC000646817380   -0.1300
     15 C15        -9.3599    2.6082   59.7583 C.3     1  ZINC000646817380   -0.1000
     16 H16        -8.8802    3.0221   60.6454 H       1  ZINC000646817380    0.1000
     17 C17        -9.9494    1.2271   60.0510 C.3     1  ZINC000646817380   -0.0700
     18 H18       -10.7966    1.0358   59.3925 H       1  ZINC000646817380    0.0800
     19 C19        -8.8720    0.1404   59.8554 C.3     1  ZINC000646817380   -0.1300
     20 C20        -9.1624   -0.8885   60.9762 C.3     1  ZINC000646817380   -0.1300
     21 C21        -9.5721    0.0113   62.1684 C.3     1  ZINC000646817380   -0.1200
     22 C22       -10.3957    1.1454   61.5213 C.3     1  ZINC000646817380   -0.0700
     23 C23       -10.1098    2.4708   62.2302 C.3     1  ZINC000646817380   -0.1600
     24 C24       -11.8886    0.8196   61.6001 C.3     1  ZINC000646817380   -0.1400
     25 C25        -8.3721    2.5476   58.5635 C.3     1  ZINC000646817380    0.0900
     26 N26        -3.6434    2.5852   55.8872 N.2     1  ZINC000646817380   -0.3800
     27 O27        -2.5181    2.1429   55.8765 O.3     1  ZINC000646817380    0.1100
     28 H28         1.5976    3.5271   56.9876 H       1  ZINC000646817380    0.0700
     29 H29         0.4242    4.0466   55.7541 H       1  ZINC000646817380    0.0600
     30 H30         0.2030    4.5308   57.4526 H       1  ZINC000646817380    0.0600
     31 H31         0.0634    1.6753   56.3831 H       1  ZINC000646817380    0.1100
     32 H32        -0.4515    2.8297   59.1615 H       1  ZINC000646817380    0.0600
     33 H33        -0.6965    1.1336   58.6804 H       1  ZINC000646817380    0.0600
     34 H34         0.9432    1.8261   58.6965 H       1  ZINC000646817380    0.0700
     35 H35        -2.2134    4.3846   58.1587 H       1  ZINC000646817380    0.1900
     36 H36        -4.8571    5.2254   57.2507 H       1  ZINC000646817380    0.4300
     37 H37        -9.4252    5.4717   58.9594 H       1  ZINC000646817380    0.0800
     38 H38       -10.1776    4.8380   57.4690 H       1  ZINC000646817380    0.0800
     39 H39       -10.9570    4.0805   60.0304 H       1  ZINC000646817380    0.0900
     40 H40       -11.1584    3.0356   58.5857 H       1  ZINC000646817380    0.0800
     41 H41        -8.9730   -0.3248   58.8749 H       1  ZINC000646817380    0.0700
     42 H42        -7.8754    0.5651   59.9764 H       1  ZINC000646817380    0.0800
     43 H43        -9.9814   -1.5491   60.6914 H       1  ZINC000646817380    0.0700
     44 H44        -8.2670   -1.4624   61.2151 H       1  ZINC000646817380    0.0700
     45 H45       -10.1843   -0.5482   62.8759 H       1  ZINC000646817380    0.0700
     46 H46        -8.6887    0.4151   62.6630 H       1  ZINC000646817380    0.0700
     47 H47        -9.0517    2.5248   62.4867 H       1  ZINC000646817380    0.0700
     48 H48       -10.3661    3.2989   61.5694 H       1  ZINC000646817380    0.0600
     49 H49       -10.7078    2.5330   63.1394 H       1  ZINC000646817380    0.0500
     50 H50       -12.1884    0.7395   62.6449 H       1  ZINC000646817380    0.0600
     51 H51       -12.4594    1.6133   61.1181 H       1  ZINC000646817380    0.0500
     52 H52       -12.0813   -0.1258   61.0932 H       1  ZINC000646817380    0.0600
     53 H53        -8.7237    1.8360   57.8165 H       1  ZINC000646817380    0.0900
     54 H54        -7.3751    2.2746   58.9091 H       1  ZINC000646817380    0.1000
@<TRIPOS>BOND
     1     1     2    1
     2     1    28    1
     3     1    29    1
     4     1    30    1
     5     2     3    1
     6     2     4    1
     7     2    31    1
     8     3    32    1
     9     3    33    1
    10     3    34    1
    11     4    27    1
    12     4     5    2
    13     5     6    1
    14     5    35    1
    15     6     7    1
    16     6    26    2
    17     7     8   am
    18     7    36    1
    19     8     9    2
    20     8    10    1
    21    10    11    2
    22    10    12   am
    23    12    25    1
    24    12    13    1
    25    13    14    1
    26    13    37    1
    27    13    38    1
    28    14    15    1
    29    14    39    1
    30    14    40    1
    31    15    16    1
    32    15    17    1
    33    15    25    1
    34    17    18    1
    35    17    22    1
    36    17    19    1
    37    19    20    1
    38    19    41    1
    39    19    42    1
    40    20    21    1
    41    20    43    1
    42    20    44    1
    43    21    22    1
    44    21    45    1
    45    21    46    1
    46    22    23    1
    47    22    24    1
    48    23    47    1
    49    23    48    1
    50    23    49    1
    51    24    50    1
    52    24    51    1
    53    24    52    1
    54    25    53    1
    55    25    54    1
    56    26    27    1
@<TRIPOS>SUBSTRUCTURE
     1 ZINC000646817380        1 TEMP              0 ****  ****    0 ROOT


##########                                Name:    ZINC001039666729
##########                DOCK_Rotatable_Bonds:                   3
##########                         Heavy_Atoms:                  25
##########                    Molecular_Weight:             344.376
##########                DOCK_Rotatable_Bonds:                   3
##########                       Formal_Charge:          -0.0199998
##########                     HBond_Acceptors:                  10
##########                        HBond_Donors:                   2
##########                         Heavy_Atoms:                  25
##########                          Grid_Score:          -25.147627
##########                     Grid_vdw_energy:          -25.455950
##########                      Grid_es_energy:            0.308322
##########           Internal_energy_repulsive:           27.027113

@<TRIPOS>MOLECULE
ZINC001039666729
 45 47 1 0 0
SMALL
USER_CHARGES


@<TRIPOS>ATOM
      1 C1        -11.9433   -2.1834   56.4837 C.3     1  ZINC001039666729   -0.1100
      2 C2        -12.4216   -1.1768   55.4691 C.ar    1  ZINC001039666729    0.2200
      3 C3        -13.5361   -0.3951   55.7284 C.ar    1  ZINC001039666729   -0.3000
      4 C4        -13.9426    0.5186   54.7684 C.ar    1  ZINC001039666729    0.1900
      5 N5        -13.2590    0.6163   53.6403 N.ar    1  ZINC001039666729   -0.5800
      6 C6        -12.1973   -0.1464   53.4235 C.ar    1  ZINC001039666729    0.6000
      7 N7        -11.5049   -0.0176   52.2320 N.pl3   1  ZINC001039666729   -0.5900
      8 C8        -12.1381    0.4028   50.9448 C.3     1  ZINC001039666729    0.1200
      9 C9        -12.2699    1.9273   50.9630 C.3     1  ZINC001039666729    0.0900
     10 N10       -10.9085    2.5143   51.0327 N.am    1  ZINC001039666729   -0.7400
     11 C11       -10.5118    2.8782   52.2926 C.2     1  ZINC001039666729    0.5200
     12 O12       -11.2450    2.7155   53.2449 O.2     1  ZINC001039666729   -0.5200
     13 C13        -9.1435    3.4849   52.4684 C.3     1  ZINC001039666729   -0.1500
     14 C14        -8.3084    2.5999   53.3959 C.3     1  ZINC001039666729    0.1100
     15 N15        -8.2638    1.2303   52.8213 N.am    1  ZINC001039666729   -0.6100
     16 C16        -7.3273    0.8443   51.9322 C.2     1  ZINC001039666729    0.6100
     17 O17        -7.3375   -0.2887   51.4920 O.2     1  ZINC001039666729   -0.5200
     18 C18        -6.2879    1.7988   51.4924 C.2     1  ZINC001039666729   -0.0400
     19 N19        -6.4551    3.0712   51.1656 N.2     1  ZINC001039666729   -0.2500
     20 N20        -5.3128    3.5623   50.8378 N.pl3   1  ZINC001039666729   -0.2300
     21 N21        -4.3851    2.6776   50.9293 N.2     1  ZINC001039666729   -0.2800
     22 C22        -4.9098    1.5476   51.3385 C.2     1  ZINC001039666729    0.0400
     23 C23        -9.3337    0.3201   53.3057 C.3     1  ZINC001039666729    0.1100
     24 C24       -10.0395   -0.2774   52.0911 C.3     1  ZINC001039666729    0.1300
     25 N25       -11.7795   -1.0252   54.3225 N.ar    1  ZINC001039666729   -0.5700
     26 H26       -11.2302   -1.7089   57.1579 H       1  ZINC001039666729    0.0800
     27 H27       -12.7934   -2.5541   57.0564 H       1  ZINC001039666729    0.0800
     28 H28       -11.4603   -3.0150   55.9707 H       1  ZINC001039666729    0.0800
     29 H29       -14.0764   -0.4957   56.6581 H       1  ZINC001039666729    0.1400
     30 H30       -14.8073    1.1426   54.9392 H       1  ZINC001039666729    0.1600
     31 H31       -11.5108    0.0966   50.1076 H       1  ZINC001039666729    0.0800
     32 H32       -13.1246   -0.0518   50.8532 H       1  ZINC001039666729    0.0900
     33 H33       -12.7685    2.2635   50.0540 H       1  ZINC001039666729    0.0800
     34 H34       -12.8476    2.2354   51.8345 H       1  ZINC001039666729    0.1000
     35 H35       -10.3462    2.6307   50.2509 H       1  ZINC001039666729    0.4100
     36 H36        -8.6521    3.5600   51.4983 H       1  ZINC001039666729    0.0800
     37 H37        -9.2402    4.4791   52.9046 H       1  ZINC001039666729    0.1100
     38 H38        -7.2971    2.9993   53.4721 H       1  ZINC001039666729    0.1100
     39 H39        -8.7667    2.5686   54.3844 H       1  ZINC001039666729    0.0900
     40 H40        -5.1700    4.4800   50.5578 H       1  ZINC001039666729    0.4700
     41 H41        -4.3938    0.6153   51.5142 H       1  ZINC001039666729    0.2100
     42 H42        -8.8943   -0.4759   53.9070 H       1  ZINC001039666729    0.0800
     43 H43       -10.0497    0.8816   53.9058 H       1  ZINC001039666729    0.1200
     44 H44        -9.8617   -1.3520   52.0529 H       1  ZINC001039666729    0.0700
     45 H45        -9.6668    0.1915   51.1805 H       1  ZINC001039666729    0.0900
@<TRIPOS>BOND
     1     1     2    1
     2     1    26    1
     3     1    27    1
     4     1    28    1
     5     2    25   ar
     6     2     3   ar
     7     3     4   ar
     8     3    29    1
     9     4     5   ar
    10     4    30    1
    11     5     6   ar
    12     6     7    1
    13     6    25   ar
    14     7    24    1
    15     7     8    1
    16     8     9    1
    17     8    31    1
    18     8    32    1
    19     9    10    1
    20     9    33    1
    21     9    34    1
    22    10    11   am
    23    10    35    1
    24    11    12    2
    25    11    13    1
    26    13    14    1
    27    13    36    1
    28    13    37    1
    29    14    15    1
    30    14    38    1
    31    14    39    1
    32    15    16   am
    33    15    23    1
    34    16    17    2
    35    16    18    1
    36    18    22    1
    37    18    19    2
    38    19    20    1
    39    20    21    1
    40    20    40    1
    41    21    22    2
    42    22    41    1
    43    23    24    1
    44    23    42    1
    45    23    43    1
    46    24    44    1
    47    24    45    1
@<TRIPOS>SUBSTRUCTURE
     1 ZINC001039666729        1 TEMP              0 ****  ****    0 ROOT


##########                                Name:    ZINC000811540126
##########                DOCK_Rotatable_Bonds:                   7
##########                         Heavy_Atoms:                  21
##########                    Molecular_Weight:             397.212
##########                DOCK_Rotatable_Bonds:                   7
##########                       Formal_Charge:           0.0100001
##########                     HBond_Acceptors:                   4
##########                        HBond_Donors:                   3
##########                         Heavy_Atoms:                  21
##########                          Grid_Score:          -25.121260
##########                     Grid_vdw_energy:          -25.205341
##########                      Grid_es_energy:            0.084081
##########           Internal_energy_repulsive:            8.227828

@<TRIPOS>MOLECULE
ZINC000811540126
 37 38 1 0 0
SMALL
USER_CHARGES


@<TRIPOS>ATOM
      1 C1        -15.1766    0.1997   61.5444 C.3     1  ZINC000811540126   -0.1600
      2 C2        -14.3547   -0.7155   60.6344 C.3     1  ZINC000811540126    0.1200
      3 H3        -14.3278   -0.2980   59.6279 H       1  ZINC000811540126    0.1000
      4 N4        -12.9895   -0.8235   61.1549 N.am    1  ZINC000811540126   -0.7200
      5 C5        -12.0260   -0.0007   60.6951 C.2     1  ZINC000811540126    0.5700
      6 O6        -12.2896    0.8301   59.8474 O.2     1  ZINC000811540126   -0.5100
      7 C7        -10.6517   -0.1082   61.2205 C.ar    1  ZINC000811540126   -0.1600
      8 C8        -10.3608    0.3167   62.5189 C.ar    1  ZINC000811540126   -0.0400
      9 C9         -9.0743    0.2135   63.0039 C.ar    1  ZINC000811540126   -0.1200
     10 I10        -8.6396    0.8514   64.9515 I       1  ZINC000811540126   -0.0300
     11 C11        -8.0677   -0.3105   62.2090 C.ar    1  ZINC000811540126   -0.0400
     12 C12        -8.3420   -0.7338   60.9234 C.ar    1  ZINC000811540126   -0.1500
     13 C13        -9.6314   -0.6427   60.4216 C.ar    1  ZINC000811540126    0.1900
     14 O14        -9.9021   -1.0587   59.1591 O.3     1  ZINC000811540126   -0.4700
     15 C15       -14.9963   -2.1039   60.5939 C.3     1  ZINC000811540126    0.1400
     16 H16       -16.0435   -2.0289   60.8866 H       1  ZINC000811540126    0.1300
     17 O17       -14.3100   -2.9724   61.4976 O.3     1  ZINC000811540126   -0.5400
     18 C18       -14.9040   -2.6593   59.1959 C.ar    1  ZINC000811540126   -0.1200
     19 C19       -13.7702   -2.4367   58.4373 C.ar    1  ZINC000811540126   -0.1100
     20 C20       -13.6855   -2.9462   57.1549 C.ar    1  ZINC000811540126   -0.1100
     21 C21       -14.7348   -3.6785   56.6315 C.ar    1  ZINC000811540126   -0.1200
     22 C22       -15.8683   -3.9016   57.3906 C.ar    1  ZINC000811540126   -0.1100
     23 C23       -15.9511   -3.3959   58.6744 C.ar    1  ZINC000811540126   -0.1100
     24 H24       -14.7195    1.1888   61.5733 H       1  ZINC000811540126    0.0600
     25 H25       -16.1922    0.2799   61.1571 H       1  ZINC000811540126    0.0700
     26 H26       -15.2034   -0.2178   62.5509 H       1  ZINC000811540126    0.0700
     27 H27       -12.7790   -1.4870   61.8304 H       1  ZINC000811540126    0.3900
     28 H28       -11.1425    0.7258   63.1419 H       1  ZINC000811540126    0.1300
     29 H29        -7.0628   -0.3881   62.5968 H       1  ZINC000811540126    0.1400
     30 H30        -7.5520   -1.1409   60.3097 H       1  ZINC000811540126    0.1500
     31 H31       -10.4121   -1.8791   59.1161 H       1  ZINC000811540126    0.4000
     32 H32       -14.1246   -2.5759   62.3598 H       1  ZINC000811540126    0.3700
     33 H33       -12.9505   -1.8646   58.8462 H       1  ZINC000811540126    0.1100
     34 H34       -12.7999   -2.7717   56.5619 H       1  ZINC000811540126    0.1200
     35 H35       -14.6690   -4.0758   55.6295 H       1  ZINC000811540126    0.1200
     36 H36       -16.6881   -4.4735   56.9815 H       1  ZINC000811540126    0.1300
     37 H37       -16.8367   -3.5703   59.2675 H       1  ZINC000811540126    0.1200
@<TRIPOS>BOND
     1     1     2    1
     2     1    24    1
     3     1    25    1
     4     1    26    1
     5     2     3    1
     6     2     4    1
     7     2    15    1
     8     4     5   am
     9     4    27    1
    10     5     6    2
    11     5     7    1
    12     7    13   ar
    13     7     8   ar
    14     8     9   ar
    15     8    28    1
    16     9    10    1
    17     9    11   ar
    18    11    12   ar
    19    11    29    1
    20    12    13   ar
    21    12    30    1
    22    13    14    1
    23    14    31    1
    24    15    16    1
    25    15    17    1
    26    15    18    1
    27    17    32    1
    28    18    23   ar
    29    18    19   ar
    30    19    20   ar
    31    19    33    1
    32    20    21   ar
    33    20    34    1
    34    21    22   ar
    35    21    35    1
    36    22    23   ar
    37    22    36    1
    38    23    37    1
@<TRIPOS>SUBSTRUCTURE
     1 ZINC000811540126        1 TEMP              0 ****  ****    0 ROOT


##########                                Name:    ZINC000599228306
##########                DOCK_Rotatable_Bonds:                   8
##########                         Heavy_Atoms:                  25
##########                    Molecular_Weight:             379.382
##########                DOCK_Rotatable_Bonds:                   8
##########                       Formal_Charge:        -4.09782e-08
##########                     HBond_Acceptors:                  10
##########                        HBond_Donors:                   1
##########                         Heavy_Atoms:                  25
##########                          Grid_Score:          -25.038601
##########                     Grid_vdw_energy:          -23.187950
##########                      Grid_es_energy:           -1.850651
##########           Internal_energy_repulsive:           18.961639

@<TRIPOS>MOLECULE
ZINC000599228306
 44 44 1 0 0
SMALL
USER_CHARGES


@<TRIPOS>ATOM
      1 C1         -2.4299    2.6556   55.8272 C.3     1  ZINC000599228306    0.0400
      2 O2         -1.7096    3.7743   55.2459 O.3     1  ZINC000599228306   -0.3500
      3 C3         -2.4013    4.5857   54.4223 C.2     1  ZINC000599228306    0.5100
      4 O4         -2.4900    5.7715   54.6713 O.2     1  ZINC000599228306   -0.4800
      5 C5         -3.0513    4.0340   53.2178 C.ar    1  ZINC000599228306   -0.1500
      6 C6         -2.3195    3.2519   52.3213 C.ar    1  ZINC000599228306   -0.0100
      7 C7         -2.9343    2.7391   51.1962 C.ar    1  ZINC000599228306    0.0700
      8 F8         -2.2277    1.9823   50.3282 F       1  ZINC000599228306   -0.1200
      9 C9         -4.2746    2.9981   50.9553 C.ar    1  ZINC000599228306    0.0100
     10 C10        -5.0056    3.7713   51.8379 C.ar    1  ZINC000599228306   -0.7100
     11 S11        -6.7089    4.0934   51.5215 S.o2    1  ZINC000599228306    2.7000
     12 O12        -6.8393    5.5053   51.4271 O.2     1  ZINC000599228306   -0.9200
     13 O13        -7.0990    3.2057   50.4828 O.2     1  ZINC000599228306   -0.9300
     14 N14        -7.5532    3.6349   52.8703 N.am    1  ZINC000599228306   -1.1000
     15 C15        -7.4991    2.2454   53.3312 C.3     1  ZINC000599228306    0.1600
     16 H16        -6.5524    1.7985   53.0273 H       1  ZINC000599228306    0.1300
     17 C17        -7.6139    2.2091   54.8564 C.3     1  ZINC000599228306   -0.1700
     18 C18        -8.6389    1.4696   52.7229 C.2     1  ZINC000599228306    0.4700
     19 O19        -8.4134    0.5879   51.9281 O.2     1  ZINC000599228306   -0.4900
     20 O20        -9.9046    1.7583   53.0638 O.3     1  ZINC000599228306   -0.3400
     21 C21       -10.7521    0.6459   53.4547 C.3     1  ZINC000599228306    0.1200
     22 C22       -11.2470   -0.0824   52.2036 C.3     1  ZINC000599228306   -0.1900
     23 C23        -9.9513   -0.3238   54.3261 C.3     1  ZINC000599228306   -0.1400
     24 C24       -11.9511    1.1719   54.2465 C.3     1  ZINC000599228306   -0.1800
     25 C25        -4.4049    4.2871   52.9712 C.ar    1  ZINC000599228306    0.2500
     26 F26        -5.1207    5.0422   53.8331 F       1  ZINC000599228306   -0.0900
     27 H27        -1.7583    2.0846   56.4681 H       1  ZINC000599228306    0.1100
     28 H28        -3.2659    3.0296   56.4185 H       1  ZINC000599228306    0.0700
     29 H29        -2.8067    2.0131   55.0314 H       1  ZINC000599228306    0.0700
     30 H30        -1.2752    3.0491   52.5075 H       1  ZINC000599228306    0.1700
     31 H31        -4.7500    2.5943   50.0737 H       1  ZINC000599228306    0.1800
     32 H32        -8.0835    4.2864   53.3553 H       1  ZINC000599228306    0.4300
     33 H33        -7.5736    1.1751   55.1993 H       1  ZINC000599228306    0.0900
     34 H34        -6.7894    2.7701   55.2963 H       1  ZINC000599228306    0.0700
     35 H35        -8.5606    2.6560   55.1602 H       1  ZINC000599228306    0.0800
     36 H36       -10.3929   -0.4571   51.6395 H       1  ZINC000599228306    0.0600
     37 H37       -11.8833   -0.9174   52.4970 H       1  ZINC000599228306    0.0700
     38 H38       -11.8176    0.6085   51.5827 H       1  ZINC000599228306    0.0800
     39 H39        -9.5988    0.1951   55.2174 H       1  ZINC000599228306    0.0700
     40 H40       -10.5876   -1.1588   54.6195 H       1  ZINC000599228306    0.0800
     41 H41        -9.0972   -0.6986   53.7620 H       1  ZINC000599228306    0.0700
     42 H42       -12.5216    1.8627   53.6257 H       1  ZINC000599228306    0.0800
     43 H43       -12.5873    0.3369   54.5399 H       1  ZINC000599228306    0.0700
     44 H44       -11.5985    1.6908   55.1378 H       1  ZINC000599228306    0.0600
@<TRIPOS>BOND
     1     1     2    1
     2     1    27    1
     3     1    28    1
     4     1    29    1
     5     2     3    1
     6     3     4    2
     7     3     5    1
     8     5    25   ar
     9     5     6   ar
    10     6     7   ar
    11     6    30    1
    12     7     8    1
    13     7     9   ar
    14     9    10   ar
    15     9    31    1
    16    10    11    1
    17    10    25   ar
    18    11    12    2
    19    11    13    2
    20    11    14   am
    21    14    15    1
    22    14    32    1
    23    15    16    1
    24    15    17    1
    25    15    18    1
    26    17    33    1
    27    17    34    1
    28    17    35    1
    29    18    19    2
    30    18    20    1
    31    20    21    1
    32    21    22    1
    33    21    23    1
    34    21    24    1
    35    22    36    1
    36    22    37    1
    37    22    38    1
    38    23    39    1
    39    23    40    1
    40    23    41    1
    41    24    42    1
    42    24    43    1
    43    24    44    1
    44    25    26    1
@<TRIPOS>SUBSTRUCTURE
     1 ZINC000599228306        1 TEMP              0 ****  ****    0 ROOT


##########                                Name:    ZINC001015955459
##########                DOCK_Rotatable_Bonds:                   6
##########                         Heavy_Atoms:                  24
##########                    Molecular_Weight:             347.844
##########                DOCK_Rotatable_Bonds:                   6
##########                       Formal_Charge:          -0.0200002
##########                     HBond_Acceptors:                   6
##########                        HBond_Donors:                   1
##########                         Heavy_Atoms:                  24
##########                          Grid_Score:          -25.033783
##########                     Grid_vdw_energy:          -25.531590
##########                      Grid_es_energy:            0.497807
##########           Internal_energy_repulsive:            9.518029

@<TRIPOS>MOLECULE
ZINC001015955459
 46 48 1 0 0
SMALL
USER_CHARGES


@<TRIPOS>ATOM
      1 C1         -0.8696    2.2124   56.4586 C.3     1  ZINC001015955459   -0.1500
      2 C2         -2.0630    3.1696   56.4791 C.3     1  ZINC001015955459   -0.0300
      3 C3         -1.5620    4.6059   56.6433 C.3     1  ZINC001015955459   -0.1500
      4 C4         -2.8262    3.0487   55.1853 C.2     1  ZINC001015955459    0.0600
      5 C5         -4.1760    3.1280   55.0306 C.2     1  ZINC001015955459   -0.0800
      6 C6         -5.1684    3.3482   56.0982 C.2     1  ZINC001015955459    0.6100
      7 O7         -4.8127    3.7722   57.1812 O.2     1  ZINC001015955459   -0.5300
      8 N8         -6.4700    3.0799   55.8741 N.am    1  ZINC001015955459   -0.7100
      9 C9         -7.4565    3.3004   56.9345 C.3     1  ZINC001015955459    0.1400
     10 H10        -7.1404    4.1195   57.5804 H       1  ZINC001015955459    0.1000
     11 C11        -8.8406    3.6027   56.3242 C.3     1  ZINC001015955459   -0.1300
     12 C12        -9.7594    2.4714   56.8334 C.3     1  ZINC001015955459    0.0200
     13 N13        -9.1067    1.9910   58.0784 N.3     1  ZINC001015955459   -0.4900
     14 C14        -9.5522    0.6324   58.4159 C.3     1  ZINC001015955459    0.0800
     15 C15        -9.3089    0.3733   59.8804 C.ar    1  ZINC001015955459   -0.1100
     16 C16        -8.2070   -0.3601   60.2786 C.ar    1  ZINC001015955459   -0.1100
     17 C17        -7.9805   -0.5940   61.6223 C.ar    1  ZINC001015955459   -0.1000
     18 C18        -8.8615   -0.1039   62.5674 C.ar    1  ZINC001015955459   -0.1100
     19 C19        -9.9677    0.6259   62.1691 C.ar    1  ZINC001015955459   -0.0300
     20 Cl20      -11.0752    1.2415   63.3557 Cl      1  ZINC001015955459   -0.0700
     21 C21       -10.1908    0.8642   60.8249 C.ar    1  ZINC001015955459   -0.1000
     22 C22        -7.6529    2.0111   57.7608 C.3     1  ZINC001015955459    0.0100
     23 N23        -4.4375    2.9600   53.7059 N.2     1  ZINC001015955459   -0.4600
     24 C24        -3.3100    2.7965   53.0810 C.2     1  ZINC001015955459    0.1800
     25 O25        -2.3039    2.8427   53.9657 O.3     1  ZINC001015955459   -0.1900
     26 H26        -0.2146    2.4662   55.6253 H       1  ZINC001015955459    0.0600
     27 H27        -0.3176    2.2998   57.3945 H       1  ZINC001015955459    0.0700
     28 H28        -1.2266    1.1892   56.3417 H       1  ZINC001015955459    0.0600
     29 H29        -2.7182    2.9158   57.3125 H       1  ZINC001015955459    0.1300
     30 H30        -2.4122    5.2879   56.6579 H       1  ZINC001015955459    0.0600
     31 H31        -1.0100    4.6934   57.5792 H       1  ZINC001015955459    0.0700
     32 H32        -0.9068    4.8597   55.8101 H       1  ZINC001015955459    0.0600
     33 H33        -6.7536    2.7407   55.0107 H       1  ZINC001015955459    0.4100
     34 H34        -9.2039    4.5703   56.6704 H       1  ZINC001015955459    0.0800
     35 H35        -8.7860    3.5870   55.2356 H       1  ZINC001015955459    0.0700
     36 H36       -10.7546    2.8590   57.0511 H       1  ZINC001015955459    0.0900
     37 H37        -9.8157    1.6679   56.0992 H       1  ZINC001015955459    0.0500
     38 H38       -10.6166    0.5353   58.2016 H       1  ZINC001015955459    0.0900
     39 H39        -8.9943   -0.0911   57.8213 H       1  ZINC001015955459    0.0900
     40 H40        -7.5207   -0.7471   59.5401 H       1  ZINC001015955459    0.1300
     41 H41        -7.1172   -1.1636   61.9331 H       1  ZINC001015955459    0.1300
     42 H42        -8.6869   -0.2906   63.6168 H       1  ZINC001015955459    0.1300
     43 H43       -11.0543    1.4333   60.5133 H       1  ZINC001015955459    0.1300
     44 H44        -7.3797    1.1362   57.1708 H       1  ZINC001015955459    0.0700
     45 H45        -7.0627    2.0529   58.6762 H       1  ZINC001015955459    0.0900
     46 H46        -3.2010    2.6426   52.0177 H       1  ZINC001015955459    0.2600
@<TRIPOS>BOND
     1     1     2    1
     2     1    26    1
     3     1    27    1
     4     1    28    1
     5     2     3    1
     6     2     4    1
     7     2    29    1
     8     3    30    1
     9     3    31    1
    10     3    32    1
    11     4    25    1
    12     4     5    2
    13     5     6    1
    14     5    23    1
    15     6     7    2
    16     6     8   am
    17     8     9    1
    18     8    33    1
    19     9    10    1
    20     9    22    1
    21     9    11    1
    22    11    12    1
    23    11    34    1
    24    11    35    1
    25    12    13    1
    26    12    36    1
    27    12    37    1
    28    13    14    1
    29    13    22    1
    30    14    15    1
    31    14    38    1
    32    14    39    1
    33    15    21   ar
    34    15    16   ar
    35    16    17   ar
    36    16    40    1
    37    17    18   ar
    38    17    41    1
    39    18    19   ar
    40    18    42    1
    41    19    20    1
    42    19    21   ar
    43    21    43    1
    44    22    44    1
    45    22    45    1
    46    23    24    2
    47    24    25    1
    48    24    46    1
@<TRIPOS>SUBSTRUCTURE
     1 ZINC001015955459        1 TEMP              0 ****  ****    0 ROOT


##########                                Name:    ZINC000437443367
##########                DOCK_Rotatable_Bonds:                   8
##########                         Heavy_Atoms:                  24
##########                    Molecular_Weight:             334.434
##########                DOCK_Rotatable_Bonds:                   8
##########                       Formal_Charge:          -0.0500003
##########                     HBond_Acceptors:                   5
##########                        HBond_Donors:                   1
##########                         Heavy_Atoms:                  24
##########                          Grid_Score:          -25.025131
##########                     Grid_vdw_energy:          -24.869755
##########                      Grid_es_energy:           -0.155377
##########           Internal_energy_repulsive:           27.051491

@<TRIPOS>MOLECULE
ZINC000437443367
 51 52 1 0 0
SMALL
USER_CHARGES


@<TRIPOS>ATOM
      1 C1         -5.5597    2.3131   51.2637 C.3     1  ZINC000437443367   -0.1200
      2 C2         -4.1227    2.7485   51.3921 C.ar    1  ZINC000437443367   -0.1000
      3 C3         -3.3232    2.8284   50.2693 C.ar    1  ZINC000437443367   -0.1200
      4 C4         -1.9984    3.2299   50.3884 C.ar    1  ZINC000437443367    0.1400
      5 N5         -1.1870    3.3120   49.2528 N.am    1  ZINC000437443367   -0.6400
      6 C6         -0.7055    2.1881   48.6859 C.2     1  ZINC000437443367    0.5000
      7 O7         -0.9764    1.1045   49.1610 O.2     1  ZINC000437443367   -0.4800
      8 C8          0.1613    2.2759   47.4728 C.2     1  ZINC000437443367    0.5100
      9 O9         -0.3345    2.4974   46.3875 O.2     1  ZINC000437443367   -0.5200
     10 N10         1.4941    2.1091   47.5835 N.am    1  ZINC000437443367   -0.5700
     11 C11         2.3445    2.1952   46.3937 C.3     1  ZINC000437443367    0.0900
     12 C12         2.4780    3.6585   45.9670 C.3     1  ZINC000437443367   -0.1200
     13 C13         1.8932    3.8361   44.5644 C.3     1  ZINC000437443367   -0.0900
     14 C14         2.0278    5.2991   44.1372 C.3     1  ZINC000437443367   -0.1400
     15 C15         2.6520    2.9450   43.5790 C.3     1  ZINC000437443367   -0.1500
     16 C16         2.0924    1.8418   48.8937 C.3     1  ZINC000437443367    0.1300
     17 C17         2.3619    0.3312   49.0532 C.3     1  ZINC000437443367   -0.1300
     18 C18         3.8461    0.1647   48.6429 C.3     1  ZINC000437443367   -0.1300
     19 C19         4.5070    1.4382   49.2266 C.3     1  ZINC000437443367   -0.1200
     20 C20         3.4563    2.5456   49.0039 C.3     1  ZINC000437443367   -0.1400
     21 C21        -1.4815    3.5501   51.6371 C.ar    1  ZINC000437443367   -0.1100
     22 C22        -2.2850    3.4687   52.7575 C.ar    1  ZINC000437443367   -0.1300
     23 C23        -3.6066    3.0737   52.6357 C.ar    1  ZINC000437443367    0.0800
     24 F24        -4.3909    2.9948   53.7329 F       1  ZINC000437443367   -0.1400
     25 H25        -6.1902    3.1860   51.0948 H       1  ZINC000437443367    0.0800
     26 H26        -5.6574    1.6263   50.4230 H       1  ZINC000437443367    0.0700
     27 H27        -5.8708    1.8121   52.1802 H       1  ZINC000437443367    0.0700
     28 H28        -3.7270    2.5787   49.2994 H       1  ZINC000437443367    0.1400
     29 H29        -0.9706    4.1779   48.8729 H       1  ZINC000437443367    0.4200
     30 H30         3.3309    1.7919   46.6222 H       1  ZINC000437443367    0.0900
     31 H31         1.8955    1.6202   45.5838 H       1  ZINC000437443367    0.1000
     32 H32         1.9369    4.2925   46.6693 H       1  ZINC000437443367    0.0700
     33 H33         3.5309    3.9402   45.9600 H       1  ZINC000437443367    0.0600
     34 H34         0.8400    3.5552   44.5717 H       1  ZINC000437443367    0.0600
     35 H35         3.0810    5.5799   44.1300 H       1  ZINC000437443367    0.0600
     36 H36         1.6112    5.4256   43.1380 H       1  ZINC000437443367    0.0400
     37 H37         1.4872    5.9338   44.8393 H       1  ZINC000437443367    0.0600
     38 H38         2.5560    1.9028   43.8833 H       1  ZINC000437443367    0.0500
     39 H39         2.2353    3.0715   42.5797 H       1  ZINC000437443367    0.0500
     40 H40         3.7050    3.2259   43.5717 H       1  ZINC000437443367    0.0500
     41 H41         1.4281    2.1888   49.6852 H       1  ZINC000437443367    0.1000
     42 H42         2.2159    0.0250   50.0890 H       1  ZINC000437443367    0.0800
     43 H43         1.7159   -0.2436   48.3897 H       1  ZINC000437443367    0.0700
     44 H44         4.2728   -0.7322   49.0919 H       1  ZINC000437443367    0.0700
     45 H45         3.9465    0.1401   47.5578 H       1  ZINC000437443367    0.0700
     46 H46         4.7073    1.3108   50.2904 H       1  ZINC000437443367    0.0700
     47 H47         5.4265    1.6712   48.6895 H       1  ZINC000437443367    0.0700
     48 H48         3.6731    3.0862   48.0826 H       1  ZINC000437443367    0.0800
     49 H49         3.4542    3.2337   49.8493 H       1  ZINC000437443367    0.0700
     50 H50        -0.4520    3.8621   51.7321 H       1  ZINC000437443367    0.1600
     51 H51        -1.8835    3.7176   53.7288 H       1  ZINC000437443367    0.1400
@<TRIPOS>BOND
     1     1     2    1
     2     1    25    1
     3     1    26    1
     4     1    27    1
     5     2    23   ar
     6     2     3   ar
     7     3     4   ar
     8     3    28    1
     9     4     5    1
    10     4    21   ar
    11     5     6   am
    12     5    29    1
    13     6     7    2
    14     6     8    1
    15     8     9    2
    16     8    10   am
    17    10    11    1
    18    10    16    1
    19    11    12    1
    20    11    30    1
    21    11    31    1
    22    12    13    1
    23    12    32    1
    24    12    33    1
    25    13    14    1
    26    13    15    1
    27    13    34    1
    28    14    35    1
    29    14    36    1
    30    14    37    1
    31    15    38    1
    32    15    39    1
    33    15    40    1
    34    16    20    1
    35    16    17    1
    36    16    41    1
    37    17    18    1
    38    17    42    1
    39    17    43    1
    40    18    19    1
    41    18    44    1
    42    18    45    1
    43    19    20    1
    44    19    46    1
    45    19    47    1
    46    20    48    1
    47    20    49    1
    48    21    22   ar
    49    21    50    1
    50    22    23   ar
    51    22    51    1
    52    23    24    1
@<TRIPOS>SUBSTRUCTURE
     1 ZINC000437443367        1 TEMP              0 ****  ****    0 ROOT


##########                                Name:    ZINC000535362552
##########                DOCK_Rotatable_Bonds:                   5
##########                         Heavy_Atoms:                  26
##########                    Molecular_Weight:             416.228
##########                DOCK_Rotatable_Bonds:                   5
##########                       Formal_Charge:         -0.00999981
##########                     HBond_Acceptors:                   6
##########                        HBond_Donors:                   1
##########                         Heavy_Atoms:                  26
##########                          Grid_Score:          -25.024862
##########                     Grid_vdw_energy:          -25.535780
##########                      Grid_es_energy:            0.510918
##########           Internal_energy_repulsive:           18.666275

@<TRIPOS>MOLECULE
ZINC000535362552
 40 43 1 0 0
SMALL
USER_CHARGES


@<TRIPOS>ATOM
      1 C1         -0.7723    2.7970   50.7399 C.3     1  ZINC000535362552    0.0300
      2 O2         -0.2607    3.5974   51.8380 O.3     1  ZINC000535362552   -0.3400
      3 C3         -1.1562    4.0321   52.7479 C.2     1  ZINC000535362552    0.5500
      4 O4         -0.8050    4.7872   53.6337 O.2     1  ZINC000535362552   -0.4800
      5 C5         -2.5549    3.5936   52.6688 C.2     1  ZINC000535362552   -0.0100
      6 C6         -3.4452    3.6300   53.6950 C.2     1  ZINC000535362552   -0.0900
      7 C7         -4.7002    3.1020   53.1615 C.ar    1  ZINC000535362552   -0.1300
      8 C8         -5.9698    2.8834   53.7009 C.ar    1  ZINC000535362552   -0.0600
      9 C9         -6.9672    2.3545   52.9033 C.ar    1  ZINC000535362552    0.1200
     10 N10        -8.2440    2.1324   53.4359 N.am    1  ZINC000535362552   -0.6700
     11 C11        -8.7112    0.8747   53.5642 C.2     1  ZINC000535362552    0.5200
     12 O12        -8.0264   -0.0649   53.2186 O.2     1  ZINC000535362552   -0.5000
     13 C13       -10.0844    0.6358   54.1370 C.3     1  ZINC000535362552   -0.1000
     14 H14       -10.7363    1.4891   53.9499 H       1  ZINC000535362552    0.1300
     15 C15       -10.7009   -0.6653   53.5710 C.3     1  ZINC000535362552    0.0600
     16 O16       -11.4173   -1.1953   54.6993 O.3     1  ZINC000535362552   -0.2900
     17 C17       -10.8165   -0.7788   55.8479 C.ar    1  ZINC000535362552    0.1300
     18 C18       -10.9081   -1.2903   57.1397 C.ar    1  ZINC000535362552   -0.1300
     19 C19       -10.2101   -0.6992   58.1726 C.ar    1  ZINC000535362552   -0.0500
     20 C20        -9.4139    0.4066   57.9349 C.ar    1  ZINC000535362552   -0.1200
     21 Br21       -8.4642    1.2155   59.3561 Br      1  ZINC000535362552   -0.0400
     22 C22        -9.3145    0.9188   56.6522 C.ar    1  ZINC000535362552   -0.0100
     23 C23       -10.0069    0.3278   55.6198 C.ar    1  ZINC000535362552   -0.1600
     24 C24        -6.7059    2.0419   51.5702 C.ar    1  ZINC000535362552   -0.0900
     25 C25        -5.4567    2.2537   51.0306 C.ar    1  ZINC000535362552   -0.0900
     26 C26        -4.4396    2.7852   51.8149 C.ar    1  ZINC000535362552    0.0700
     27 O27        -3.1526    3.0989   51.5647 O.3     1  ZINC000535362552   -0.1700
     28 H28        -1.5034    3.3774   50.1770 H       1  ZINC000535362552    0.0700
     29 H29         0.0501    2.5137   50.0829 H       1  ZINC000535362552    0.1100
     30 H30        -1.2474    1.8993   51.1351 H       1  ZINC000535362552    0.0700
     31 H31        -3.2626    3.9778   54.7010 H       1  ZINC000535362552    0.1800
     32 H32        -6.1708    3.1257   54.7339 H       1  ZINC000535362552    0.1400
     33 H33        -8.7916    2.8838   53.7123 H       1  ZINC000535362552    0.4100
     34 H34       -11.3828   -0.4443   52.7499 H       1  ZINC000535362552    0.1200
     35 H35        -9.9200   -1.3552   53.2507 H       1  ZINC000535362552    0.0900
     36 H36       -11.5277   -2.1534   57.3338 H       1  ZINC000535362552    0.1400
     37 H37       -10.2861   -1.1016   59.1719 H       1  ZINC000535362552    0.1400
     38 H38        -8.6940    1.7820   56.4618 H       1  ZINC000535362552    0.1400
     39 H39        -7.4912    1.6289   50.9544 H       1  ZINC000535362552    0.1500
     40 H40        -5.2670    2.0066   49.9966 H       1  ZINC000535362552    0.1500
@<TRIPOS>BOND
     1     1     2    1
     2     1    28    1
     3     1    29    1
     4     1    30    1
     5     2     3    1
     6     3     4    2
     7     3     5    1
     8     5    27    1
     9     5     6    2
    10     6     7    1
    11     6    31    1
    12     7    26   ar
    13     7     8   ar
    14     8     9   ar
    15     8    32    1
    16     9    10    1
    17     9    24   ar
    18    10    11   am
    19    10    33    1
    20    11    12    2
    21    11    13    1
    22    13    14    1
    23    13    23    1
    24    13    15    1
    25    15    16    1
    26    15    34    1
    27    15    35    1
    28    16    17    1
    29    17    23   ar
    30    17    18   ar
    31    18    19   ar
    32    18    36    1
    33    19    20   ar
    34    19    37    1
    35    20    21    1
    36    20    22   ar
    37    22    23   ar
    38    22    38    1
    39    24    25   ar
    40    24    39    1
    41    25    26   ar
    42    25    40    1
    43    26    27    1
@<TRIPOS>SUBSTRUCTURE
     1 ZINC000535362552        1 TEMP              0 ****  ****    0 ROOT


##########                                Name:    ZINC000328606936
##########                DOCK_Rotatable_Bonds:                   6
##########                         Heavy_Atoms:                  23
##########                    Molecular_Weight:             338.428
##########                DOCK_Rotatable_Bonds:                   6
##########                       Formal_Charge:           0.0100001
##########                     HBond_Acceptors:                   7
##########                        HBond_Donors:                   2
##########                         Heavy_Atoms:                  23
##########                          Grid_Score:          -25.016705
##########                     Grid_vdw_energy:          -22.638657
##########                      Grid_es_energy:           -2.378047
##########           Internal_energy_repulsive:           12.859695

@<TRIPOS>MOLECULE
ZINC000328606936
 45 47 1 0 0
SMALL
USER_CHARGES


@<TRIPOS>ATOM
      1 C1         -8.8833    2.8844   61.1758 C.3     1  <0>        -0.0500
      2 N2         -9.4458    3.0533   59.8294 N.4     1  <0>        -0.3500
      3 H3         -8.9048    3.7374   59.3221 H       1  <0>         0.4200
      4 C4        -10.8381    3.5099   59.9341 C.3     1  <0>        -0.0900
      5 C5        -10.8891    5.0074   59.7727 C.2     1  <0>         0.4900
      6 O6        -10.0181    5.7036   60.2657 O.co2   1  <0>        -0.6700
      7 O7        -11.8013    5.5226   59.1491 O.co2   1  <0>        -0.6400
      8 C8         -9.4038    1.7695   59.1165 C.3     1  <0>         0.0100
      9 H9         -9.7723    1.8903   58.0979 H       1  <0>         0.1600
     10 C10       -10.2398    0.7110   59.8677 C.3     1  <0>         0.1000
     11 N11        -9.4769   -0.5491   59.7095 N.am    1  <0>        -0.6200
     12 C12        -9.9617   -1.7866   59.4861 C.2     1  <0>         0.6200
     13 O13        -9.1988   -2.7288   59.3783 O.2     1  <0>        -0.5100
     14 C14       -11.4078   -1.9979   59.3730 C.2     1  <0>        -0.2800
     15 C15       -12.0288   -2.6953   58.3826 C.2     1  <0>        -0.0300
     16 C16       -13.4051   -2.7474   58.5062 C.2     1  <0>        -0.1200
     17 C17       -13.8835   -2.0952   59.5899 C.2     1  <0>        -0.1900
     18 C18       -15.3536   -2.0028   59.9531 C.3     1  <0>        -0.0500
     19 C19       -16.1882   -2.3801   58.7265 C.3     1  <0>        -0.1200
     20 C20       -15.6691   -3.7043   58.1586 C.3     1  <0>        -0.1200
     21 C21       -14.3022   -3.4731   57.5117 C.3     1  <0>        -0.0600
     22 S22       -12.6160   -1.3983   60.4975 S.3     1  <0>         0.2000
     23 C23        -8.0602   -0.1402   59.8524 C.3     1  <0>         0.0600
     24 C24        -7.9662    1.2097   59.1040 C.3     1  <0>         0.0800
     25 H25        -7.2915    1.8870   59.6276 H       1  <0>         0.1000
     26 O26        -7.5196    1.0038   57.7623 O.3     1  <0>        -0.5400
     27 H27        -9.4678    2.1454   61.7238 H       1  <0>         0.1100
     28 H28        -7.8502    2.5456   61.0981 H       1  <0>         0.1100
     29 H29        -8.9145    3.8370   61.7047 H       1  <0>         0.1600
     30 H30       -11.4345    3.0397   59.1522 H       1  <0>         0.1200
     31 H31       -11.2380    3.2359   60.9104 H       1  <0>         0.1300
     32 H32       -10.3262    0.9731   60.9221 H       1  <0>         0.1000
     33 H33       -11.2275    0.6165   59.4165 H       1  <0>         0.1200
     34 H34       -11.4936   -3.1662   57.5712 H       1  <0>         0.1500
     35 H35       -15.5724   -2.6907   60.7698 H       1  <0>         0.0900
     36 H36       -15.5915   -0.9835   60.2575 H       1  <0>         0.0800
     37 H37       -17.2329   -2.4923   59.0166 H       1  <0>         0.0700
     38 H38       -16.0998   -1.5996   57.9709 H       1  <0>         0.0700
     39 H39       -15.5730   -4.4330   58.9636 H       1  <0>         0.0700
     40 H40       -16.3675   -4.0780   57.4099 H       1  <0>         0.0700
     41 H41       -14.4207   -2.8656   56.6145 H       1  <0>         0.0800
     42 H42       -13.8552   -4.4320   57.2496 H       1  <0>         0.0800
     43 H43        -7.8062   -0.0110   60.9045 H       1  <0>         0.1000
     44 H44        -7.4034   -0.8769   59.3897 H       1  <0>         0.1000
     45 H45        -7.9419    1.5838   57.1138 H       1  <0>         0.4000
@<TRIPOS>BOND
     1     1     2    1
     2     1    27    1
     3     1    28    1
     4     1    29    1
     5     2     3    1
     6     2     4    1
     7     2     8    1
     8     4     5    1
     9     4    30    1
    10     4    31    1
    11     5     6   ar
    12     5     7   ar
    13     8     9    1
    14     8    24    1
    15     8    10    1
    16    10    11    1
    17    10    32    1
    18    10    33    1
    19    11    12   am
    20    11    23    1
    21    12    13    2
    22    12    14    1
    23    14    22    1
    24    14    15    2
    25    15    16    1
    26    15    34    1
    27    16    21    1
    28    16    17    2
    29    17    18    1
    30    17    22    1
    31    18    19    1
    32    18    35    1
    33    18    36    1
    34    19    20    1
    35    19    37    1
    36    19    38    1
    37    20    21    1
    38    20    39    1
    39    20    40    1
    40    21    41    1
    41    21    42    1
    42    23    24    1
    43    23    43    1
    44    23    44    1
    45    24    25    1
    46    24    26    1
    47    26    45    1
@<TRIPOS>SUBSTRUCTURE
     1 <0>         1 TEMP              0 ****  ****    0 ROOT


##########                                Name:    ZINC000652498551
##########                DOCK_Rotatable_Bonds:                   6
##########                         Heavy_Atoms:                  23
##########                    Molecular_Weight:             388.277
##########                DOCK_Rotatable_Bonds:                   6
##########                       Formal_Charge:          -0.0400001
##########                     HBond_Acceptors:                   5
##########                        HBond_Donors:                   1
##########                         Heavy_Atoms:                  23
##########                          Grid_Score:          -25.011898
##########                     Grid_vdw_energy:          -20.454176
##########                      Grid_es_energy:           -4.557721
##########           Internal_energy_repulsive:           17.784191

@<TRIPOS>MOLECULE
ZINC000652498551
 46 47 1 0 0
SMALL
USER_CHARGES


@<TRIPOS>ATOM
      1 C1         -4.2373    5.9675   54.6163 C.3     1  ZINC000652498551   -0.1300
      2 C2         -5.4080    5.3287   53.8663 C.3     1  ZINC000652498551   -0.1300
      3 C3         -6.6096    5.2068   54.8055 C.3     1  ZINC000652498551   -0.1300
      4 C4         -5.7781    6.1895   52.6861 C.2     1  ZINC000652498551    0.5000
      5 O5         -4.9252    6.8588   52.1283 O.co2   1  ZINC000652498551   -0.7000
      6 O6         -6.9305    6.2167   52.2889 O.co2   1  ZINC000652498551   -0.6700
      7 C7         -5.0012    3.9379   53.3755 C.3     1  ZINC000652498551   -0.0600
      8 H8         -4.7348    3.3143   54.2289 H       1  ZINC000652498551    0.0700
      9 C9         -3.7984    4.0589   52.4353 C.3     1  ZINC000652498551   -0.1500
     10 C10        -3.4486    2.6717   51.8888 C.3     1  ZINC000652498551   -0.1400
     11 C11        -4.6745    2.0813   51.1890 C.3     1  ZINC000652498551   -0.0100
     12 N12        -5.7812    1.9667   52.1465 N.4     1  ZINC000652498551   -0.3800
     13 H13        -5.4887    1.4038   52.9312 H       1  ZINC000652498551    0.4200
     14 C14        -6.9307    1.3296   51.4902 C.3     1  ZINC000652498551    0.0000
     15 C15        -7.8566    0.7313   52.5512 C.3     1  ZINC000652498551    0.0200
     16 O16        -8.8906   -0.0200   51.9121 O.3     1  ZINC000652498551   -0.3100
     17 C17       -10.1294    0.0390   52.4676 C.ar    1  ZINC000652498551    0.1600
     18 C18       -10.2977   -0.2242   53.8186 C.ar    1  ZINC000652498551   -0.2300
     19 C19       -11.5603   -0.1636   54.3822 C.ar    1  ZINC000652498551    0.1500
     20 F20       -11.7253   -0.4199   55.6984 F       1  ZINC000652498551   -0.1200
     21 C21       -12.6541    0.1600   53.5976 C.ar    1  ZINC000652498551   -0.1600
     22 C22       -12.4871    0.4223   52.2495 C.ar    1  ZINC000652498551   -0.0300
     23 Br23      -13.9831    0.8641   51.1807 Br      1  ZINC000652498551   -0.0100
     24 C24       -11.2267    0.3683   51.6846 C.ar    1  ZINC000652498551   -0.1300
     25 C25        -6.1700    3.3000   52.6216 C.3     1  ZINC000652498551   -0.0200
     26 H26        -3.9696    5.3449   55.4700 H       1  ZINC000652498551    0.0400
     27 H27        -3.3813    6.0543   53.9472 H       1  ZINC000652498551    0.0500
     28 H28        -4.5271    6.9584   54.9659 H       1  ZINC000652498551    0.0600
     29 H29        -6.8994    6.1977   55.1552 H       1  ZINC000652498551    0.0700
     30 H30        -7.4437    4.7519   54.2712 H       1  ZINC000652498551    0.0400
     31 H31        -6.3419    4.5842   55.6592 H       1  ZINC000652498551    0.0500
     32 H32        -4.0475    4.7242   51.6087 H       1  ZINC000652498551    0.1300
     33 H33        -2.9461    4.4602   52.9837 H       1  ZINC000652498551    0.0800
     34 H34        -2.6286    2.7577   51.1758 H       1  ZINC000652498551    0.1000
     35 H35        -3.1502    2.0212   52.7109 H       1  ZINC000652498551    0.0700
     36 H36        -4.9719    2.7323   50.3670 H       1  ZINC000652498551    0.1300
     37 H37        -4.4289    1.0937   50.7985 H       1  ZINC000652498551    0.1100
     38 H38        -7.4762    2.0737   50.9099 H       1  ZINC000652498551    0.1400
     39 H39        -6.5786    0.5389   50.8277 H       1  ZINC000652498551    0.1500
     40 H40        -7.2828    0.0757   53.2062 H       1  ZINC000652498551    0.1100
     41 H41        -8.3013    1.5339   53.1396 H       1  ZINC000652498551    0.0900
     42 H42        -9.4443   -0.4767   54.4305 H       1  ZINC000652498551    0.1500
     43 H43       -13.6389    0.2075   54.0383 H       1  ZINC000652498551    0.1500
     44 H44       -11.0972    0.5735   50.6323 H       1  ZINC000652498551    0.1500
     45 H45        -7.0280    3.2118   53.2879 H       1  ZINC000652498551    0.1100
     46 H46        -6.4356    3.9256   51.7695 H       1  ZINC000652498551    0.1700
@<TRIPOS>BOND
     1     1     2    1
     2     1    26    1
     3     1    27    1
     4     1    28    1
     5     2     3    1
     6     2     4    1
     7     2     7    1
     8     3    29    1
     9     3    30    1
    10     3    31    1
    11     4     5   ar
    12     4     6   ar
    13     7     8    1
    14     7    25    1
    15     7     9    1
    16     9    10    1
    17     9    32    1
    18     9    33    1
    19    10    11    1
    20    10    34    1
    21    10    35    1
    22    11    12    1
    23    11    36    1
    24    11    37    1
    25    12    13    1
    26    12    14    1
    27    12    25    1
    28    14    15    1
    29    14    38    1
    30    14    39    1
    31    15    16    1
    32    15    40    1
    33    15    41    1
    34    16    17    1
    35    17    24   ar
    36    17    18   ar
    37    18    19   ar
    38    18    42    1
    39    19    20    1
    40    19    21   ar
    41    21    22   ar
    42    21    43    1
    43    22    23    1
    44    22    24   ar
    45    24    44    1
    46    25    45    1
    47    25    46    1
@<TRIPOS>SUBSTRUCTURE
     1 ZINC000652498551        1 TEMP              0 ****  ****    0 ROOT


##########                                Name:    ZINC001064463188
##########                DOCK_Rotatable_Bonds:                   6
##########                         Heavy_Atoms:                  25
##########                    Molecular_Weight:             342.441
##########                DOCK_Rotatable_Bonds:                   6
##########                       Formal_Charge:          -0.0100004
##########                     HBond_Acceptors:                   6
##########                        HBond_Donors:                   0
##########                         Heavy_Atoms:                  25
##########                          Grid_Score:          -25.006836
##########                     Grid_vdw_energy:          -24.915503
##########                      Grid_es_energy:           -0.091333
##########           Internal_energy_repulsive:           16.242214

@<TRIPOS>MOLECULE
ZINC001064463188
 51 54 1 0 0
SMALL
USER_CHARGES


@<TRIPOS>ATOM
      1 C1        -10.1570   -0.3015   51.3524 C.3     1  ZINC001064463188    0.0400
      2 O2        -10.9929    0.3381   52.3190 O.3     1  ZINC001064463188   -0.3000
      3 C3        -10.4720    0.5238   53.5562 C.ar    1  ZINC001064463188    0.3900
      4 C4         -9.3553    1.3381   53.7380 C.ar    1  ZINC001064463188   -0.2800
      5 C5         -8.8575    1.4991   55.0176 C.ar    1  ZINC001064463188    0.2000
      6 N6         -9.4516    0.8797   56.0262 N.ar    1  ZINC001064463188   -0.5800
      7 C7        -10.5119    0.1117   55.8230 C.ar    1  ZINC001064463188    0.5300
      8 N8        -11.1056   -0.5186   56.9026 N.3     1  ZINC001064463188   -0.4500
      9 C9        -12.4047    0.0768   57.2070 C.3     1  ZINC001064463188    0.0700
     10 C10       -12.5580    0.2646   58.7211 C.3     1  ZINC001064463188   -0.1200
     11 C11       -12.6379   -1.0612   59.4536 C.3     1  ZINC001064463188    0.1400
     12 H12       -12.6874   -0.8890   60.5288 H       1  ZINC001064463188    0.0900
     13 C13       -13.8461   -1.8836   59.0012 C.3     1  ZINC001064463188   -0.1300
     14 C14       -13.3174   -2.7149   57.8190 C.3     1  ZINC001064463188   -0.1300
     15 C15       -11.7904   -2.6483   57.9316 C.3     1  ZINC001064463188    0.1200
     16 H16       -11.3852   -3.6550   58.0346 H       1  ZINC001064463188    0.0900
     17 C17       -11.1966   -1.9856   56.6790 C.3     1  ZINC001064463188    0.0600
     18 N18       -11.4081   -1.8377   59.1188 N.am    1  ZINC001064463188   -0.6000
     19 C19       -10.2143   -1.8152   59.7440 C.2     1  ZINC001064463188    0.5800
     20 O20        -9.3045   -2.5154   59.3426 O.2     1  ZINC001064463188   -0.5400
     21 C21       -10.0118   -0.9440   60.9118 C.2     1  ZINC001064463188   -0.2200
     22 C22        -9.3102    0.1792   60.7897 C.2     1  ZINC001064463188    0.0000
     23 C23        -8.7228    0.5594   59.4550 C.3     1  ZINC001064463188   -0.1300
     24 C24        -9.1027    1.0719   61.9860 C.3     1  ZINC001064463188   -0.1200
     25 C25       -10.2416    1.1658   63.0034 C.3     1  ZINC001064463188   -0.1900
     26 C26        -8.9643    0.3998   63.3535 C.3     1  ZINC001064463188   -0.1600
     27 N27       -11.0215   -0.0628   54.6128 N.ar    1  ZINC001064463188   -0.5900
     28 H28        -9.8852   -1.2954   51.7080 H       1  ZINC001064463188    0.0600
     29 H29       -10.6941   -0.3878   50.4079 H       1  ZINC001064463188    0.1000
     30 H30        -9.2540    0.2908   51.2042 H       1  ZINC001064463188    0.0600
     31 H31        -8.8892    1.8317   52.8981 H       1  ZINC001064463188    0.1500
     32 H32        -7.9934    2.1229   55.1927 H       1  ZINC001064463188    0.1800
     33 H33       -12.4828    1.0453   56.7131 H       1  ZINC001064463188    0.0800
     34 H34       -13.1964   -0.5775   56.8421 H       1  ZINC001064463188    0.0600
     35 H35       -11.7028    0.8262   59.0969 H       1  ZINC001064463188    0.0800
     36 H36       -13.4671    0.8331   58.9173 H       1  ZINC001064463188    0.0800
     37 H37       -14.1854   -2.5368   59.8051 H       1  ZINC001064463188    0.0800
     38 H38       -14.6534   -1.2277   58.6753 H       1  ZINC001064463188    0.0900
     39 H39       -13.6578   -3.7472   57.9005 H       1  ZINC001064463188    0.0800
     40 H40       -13.6461   -2.2810   56.8747 H       1  ZINC001064463188    0.0800
     41 H41       -11.8481   -2.1695   55.8248 H       1  ZINC001064463188    0.0700
     42 H42       -10.2073   -2.3986   56.4817 H       1  ZINC001064463188    0.0900
     43 H43       -10.4329   -1.2165   61.8683 H       1  ZINC001064463188    0.1200
     44 H44        -9.4412    1.1630   58.9004 H       1  ZINC001064463188    0.0800
     45 H45        -7.8092    1.1333   59.6103 H       1  ZINC001064463188    0.0800
     46 H46        -8.4929   -0.3433   58.8888 H       1  ZINC001064463188    0.0700
     47 H47        -8.5136    1.9710   61.8051 H       1  ZINC001064463188    0.1400
     48 H48       -10.4020    2.1269   63.4919 H       1  ZINC001064463188    0.1000
     49 H49       -11.1409    0.5819   62.8074 H       1  ZINC001064463188    0.1000
     50 H50        -9.0233   -0.6880   63.3879 H       1  ZINC001064463188    0.0900
     51 H51        -8.2844    0.8568   64.0724 H       1  ZINC001064463188    0.1000
@<TRIPOS>BOND
     1     1     2    1
     2     1    28    1
     3     1    29    1
     4     1    30    1
     5     2     3    1
     6     3    27   ar
     7     3     4   ar
     8     4     5   ar
     9     4    31    1
    10     5     6   ar
    11     5    32    1
    12     6     7   ar
    13     7     8    1
    14     7    27   ar
    15     8    17    1
    16     8     9    1
    17     9    10    1
    18     9    33    1
    19     9    34    1
    20    10    11    1
    21    10    35    1
    22    10    36    1
    23    11    12    1
    24    11    18    1
    25    11    13    1
    26    13    14    1
    27    13    37    1
    28    13    38    1
    29    14    15    1
    30    14    39    1
    31    14    40    1
    32    15    16    1
    33    15    17    1
    34    15    18    1
    35    17    41    1
    36    17    42    1
    37    18    19   am
    38    19    20    2
    39    19    21    1
    40    21    22    2
    41    21    43    1
    42    22    23    1
    43    22    24    1
    44    23    44    1
    45    23    45    1
    46    23    46    1
    47    24    26    1
    48    24    25    1
    49    24    47    1
    50    25    26    1
    51    25    48    1
    52    25    49    1
    53    26    50    1
    54    26    51    1
@<TRIPOS>SUBSTRUCTURE
     1 ZINC001064463188        1 TEMP              0 ****  ****    0 ROOT


##########                                Name:    ZINC001087843226
##########                DOCK_Rotatable_Bonds:                   6
##########                         Heavy_Atoms:                  27
##########                    Molecular_Weight:             368.479
##########                DOCK_Rotatable_Bonds:                   6
##########                       Formal_Charge:        -4.47035e-07
##########                     HBond_Acceptors:                   6
##########                        HBond_Donors:                   1
##########                         Heavy_Atoms:                  27
##########                          Grid_Score:          -24.997995
##########                     Grid_vdw_energy:          -25.045685
##########                      Grid_es_energy:            0.047688
##########           Internal_energy_repulsive:           28.730671

@<TRIPOS>MOLECULE
ZINC001087843226
 55 58 1 0 0
SMALL
USER_CHARGES


@<TRIPOS>ATOM
      1 C1         -8.4676    1.0281   58.7799 C.3     1  ZINC001087843226   -0.1500
      2 C2         -9.7183    0.3946   59.3926 C.3     1  ZINC001087843226   -0.1500
      3 C3        -10.4283   -0.4560   58.3374 C.3     1  ZINC001087843226    0.0700
      4 H4         -9.7429   -1.2068   57.9441 H       1  ZINC001087843226    0.1000
      5 C5        -10.9346    0.4444   57.1909 C.3     1  ZINC001087843226    0.1300
      6 H6        -11.0599    1.4714   57.5341 H       1  ZINC001087843226    0.1000
      7 N7        -10.0204    0.3903   56.0474 N.am    1  ZINC001087843226   -0.7200
      8 C8         -9.7672    1.5052   55.3337 C.2     1  ZINC001087843226    0.5600
      9 O9        -10.2985    2.5553   55.6380 O.2     1  ZINC001087843226   -0.5300
     10 C10        -8.8433    1.4510   54.1808 C.ar    1  ZINC001087843226   -0.1400
     11 C11        -8.8290    0.3313   53.3497 C.ar    1  ZINC001087843226   -0.0800
     12 C12        -7.9645    0.2867   52.2753 C.ar    1  ZINC001087843226   -0.1300
     13 C13        -7.1159    1.3484   52.0240 C.ar    1  ZINC001087843226   -0.0400
     14 C14        -6.1751    1.2911   50.8482 C.3     1  ZINC001087843226   -0.1200
     15 C15        -7.1237    2.4658   52.8450 C.ar    1  ZINC001087843226   -0.1100
     16 C16        -7.9868    2.5247   53.9192 C.ar    1  ZINC001087843226   -0.0300
     17 C17        -7.8036    3.8352   54.6539 C.3     1  ZINC001087843226   -0.0800
     18 C18        -6.4403    4.3786   54.1759 C.3     1  ZINC001087843226   -0.1200
     19 C19        -6.3024    3.7360   52.7777 C.3     1  ZINC001087843226   -0.0800
     20 C20       -12.3063   -0.1852   56.8318 C.3     1  ZINC001087843226   -0.1400
     21 C21       -12.8160   -0.6390   58.2225 C.3     1  ZINC001087843226    0.0400
     22 N22       -11.6055   -1.1143   58.9329 N.3     1  ZINC001087843226   -0.5100
     23 C23       -11.6947   -0.8322   60.3718 C.3     1  ZINC001087843226    0.1100
     24 C24       -12.9046   -1.5238   60.9453 C.2     1  ZINC001087843226    0.0800
     25 N25       -13.0648   -2.8108   61.0285 N.2     1  ZINC001087843226   -0.2700
     26 O26       -14.3306   -3.0433   61.6256 O.3     1  ZINC001087843226    0.0300
     27 N27       -14.8927   -1.7661   61.8824 N.2     1  ZINC001087843226   -0.2800
     28 C28       -14.0355   -0.8760   61.4804 C.2     1  ZINC001087843226    0.0900
     29 C29       -14.2262    0.6166   61.5636 C.3     1  ZINC001087843226   -0.0900
     30 H30        -7.9997    1.6882   59.5103 H       1  ZINC001087843226    0.0600
     31 H31        -7.7652    0.2443   58.4962 H       1  ZINC001087843226    0.0600
     32 H32        -8.7467    1.6029   57.8969 H       1  ZINC001087843226    0.0600
     33 H33        -9.4313   -0.2356   60.2343 H       1  ZINC001087843226    0.0800
     34 H34       -10.3906    1.1796   59.7389 H       1  ZINC001087843226    0.0700
     35 H35        -9.5974   -0.4479   55.8040 H       1  ZINC001087843226    0.4000
     36 H36        -9.4920   -0.4982   53.5465 H       1  ZINC001087843226    0.1300
     37 H37        -7.9506   -0.5792   51.6300 H       1  ZINC001087843226    0.1300
     38 H38        -6.6658    1.7099   49.9696 H       1  ZINC001087843226    0.0800
     39 H39        -5.2777    1.8676   51.0726 H       1  ZINC001087843226    0.0700
     40 H40        -5.9015    0.2545   50.6519 H       1  ZINC001087843226    0.0700
     41 H41        -8.6010    4.5305   54.3917 H       1  ZINC001087843226    0.0800
     42 H42        -7.7870    3.6661   55.7306 H       1  ZINC001087843226    0.0900
     43 H43        -6.4614    5.4658   54.1001 H       1  ZINC001087843226    0.0800
     44 H44        -5.6387    4.0506   54.8377 H       1  ZINC001087843226    0.0700
     45 H45        -5.2589    3.4969   52.5726 H       1  ZINC001087843226    0.0800
     46 H46        -6.6951    4.4061   52.0130 H       1  ZINC001087843226    0.0800
     47 H47       -12.9740    0.5569   56.3943 H       1  ZINC001087843226    0.0800
     48 H48       -12.1817   -1.0378   56.1643 H       1  ZINC001087843226    0.0800
     49 H49       -13.2648    0.2000   58.7544 H       1  ZINC001087843226    0.0600
     50 H50       -13.5355   -1.4509   58.1165 H       1  ZINC001087843226    0.0800
     51 H51       -10.7969   -1.1978   60.8701 H       1  ZINC001087843226    0.1200
     52 H52       -11.7837    0.2432   60.5263 H       1  ZINC001087843226    0.0700
     53 H53       -13.7552    0.9929   62.4718 H       1  ZINC001087843226    0.1000
     54 H54       -13.7695    1.0902   60.6945 H       1  ZINC001087843226    0.0900
     55 H55       -15.2915    0.8461   61.5848 H       1  ZINC001087843226    0.0900
@<TRIPOS>BOND
     1     1     2    1
     2     1    30    1
     3     1    31    1
     4     1    32    1
     5     2     3    1
     6     2    33    1
     7     2    34    1
     8     3     4    1
     9     3    22    1
    10     3     5    1
    11     5     6    1
    12     5     7    1
    13     5    20    1
    14     7     8   am
    15     7    35    1
    16     8     9    2
    17     8    10    1
    18    10    16   ar
    19    10    11   ar
    20    11    12   ar
    21    11    36    1
    22    12    13   ar
    23    12    37    1
    24    13    14    1
    25    13    15   ar
    26    14    38    1
    27    14    39    1
    28    14    40    1
    29    15    19    1
    30    15    16   ar
    31    16    17    1
    32    17    18    1
    33    17    41    1
    34    17    42    1
    35    18    19    1
    36    18    43    1
    37    18    44    1
    38    19    45    1
    39    19    46    1
    40    20    21    1
    41    20    47    1
    42    20    48    1
    43    21    22    1
    44    21    49    1
    45    21    50    1
    46    22    23    1
    47    23    24    1
    48    23    51    1
    49    23    52    1
    50    24    28    1
    51    24    25    2
    52    25    26    1
    53    26    27    1
    54    27    28    2
    55    28    29    1
    56    29    53    1
    57    29    54    1
    58    29    55    1
@<TRIPOS>SUBSTRUCTURE
     1 ZINC001087843226        1 TEMP              0 ****  ****    0 ROOT


##########                                Name:    ZINC000876376999
##########                DOCK_Rotatable_Bonds:                   7
##########                         Heavy_Atoms:                  24
##########                    Molecular_Weight:             358.502
##########                DOCK_Rotatable_Bonds:                   7
##########                       Formal_Charge:          -0.0299994
##########                     HBond_Acceptors:                   7
##########                        HBond_Donors:                   2
##########                         Heavy_Atoms:                  24
##########                          Grid_Score:          -24.978786
##########                     Grid_vdw_energy:          -25.175318
##########                      Grid_es_energy:            0.196531
##########           Internal_energy_repulsive:           35.453983

@<TRIPOS>MOLECULE
ZINC000876376999
 54 56 1 0 0
SMALL
USER_CHARGES


@<TRIPOS>ATOM
      1 C1         -7.1879    2.3023   52.5781 C.3     1  ZINC000876376999   -0.1500
      2 C2         -6.8043    3.7764   52.4338 C.3     1  ZINC000876376999   -0.1100
      3 C3         -5.3762    3.9839   52.9419 C.3     1  ZINC000876376999   -0.0700
      4 C4         -4.9195    5.4070   52.6146 C.3     1  ZINC000876376999    0.0900
      5 O5         -5.7561    6.3442   53.2954 O.3     1  ZINC000876376999   -0.5600
      6 C6         -5.3368    3.7697   54.4567 C.3     1  ZINC000876376999   -0.1100
      7 C7         -3.9153    4.0092   54.9708 C.3     1  ZINC000876376999   -0.1400
      8 C8         -2.9634    3.0035   54.3154 C.3     1  ZINC000876376999    0.1100
      9 N9         -3.1022    3.1029   52.8561 N.am    1  ZINC000876376999   -0.6300
     10 C10        -2.0220    3.3044   52.0756 C.2     1  ZINC000876376999    0.7100
     11 O11        -0.9194    3.4060   52.5779 O.2     1  ZINC000876376999   -0.5800
     12 N12        -2.1642    3.3935   50.7383 N.am    1  ZINC000876376999   -0.7500
     13 C13        -0.9901    3.6126   49.8899 C.3     1  ZINC000876376999    0.1400
     14 C14        -0.4778    2.2646   49.3681 C.3     1  ZINC000876376999   -0.1100
     15 C15        -0.8969    2.0626   47.9375 C.3     1  ZINC000876376999   -0.1100
     16 C16         0.1643    2.3766   46.8764 C.3     1  ZINC000876376999   -0.5200
     17 H17        -0.1909    2.2430   45.8451 H       1  ZINC000876376999    0.1500
     18 C18         0.6943    3.8018   47.1552 C.3     1  ZINC000876376999   -0.1200
     19 C19         1.7661    3.7895   48.2397 C.3     1  ZINC000876376999   -0.1200
     20 C20         2.0223    2.3551   48.7565 C.3     1  ZINC000876376999   -0.5300
     21 H21         3.0478    2.2056   49.1220 H       1  ZINC000876376999    0.1500
     22 C22         0.9454    2.0411   49.8015 C.3     1  ZINC000876376999   -0.1000
     23 S23         1.6180    1.3231   47.2859 S.o2    1  ZINC000876376999    2.3700
     24 O24         1.1896    0.0321   47.6946 O.2     1  ZINC000876376999   -0.9300
     25 O25         2.6240    1.4699   46.2934 O.2     1  ZINC000876376999   -0.9300
     26 C26        -4.4409    2.9780   52.2635 C.3     1  ZINC000876376999    0.1400
     27 H27        -6.5555    1.6970   51.9286 H       1  ZINC000876376999    0.0500
     28 H28        -7.0492    1.9905   53.6133 H       1  ZINC000876376999    0.0600
     29 H29        -8.2321    2.1692   52.2953 H       1  ZINC000876376999    0.0500
     30 H30        -6.8623    4.0658   51.3845 H       1  ZINC000876376999    0.0600
     31 H31        -7.4905    4.3892   53.0182 H       1  ZINC000876376999    0.0700
     32 H32        -3.8869    5.5404   52.9373 H       1  ZINC000876376999    0.0500
     33 H33        -4.9883    5.5724   51.5394 H       1  ZINC000876376999    0.0400
     34 H34        -5.7338    6.2642   54.2588 H       1  ZINC000876376999    0.3800
     35 H35        -6.0202    4.4679   54.9401 H       1  ZINC000876376999    0.0700
     36 H36        -5.6389    2.7480   54.6870 H       1  ZINC000876376999    0.0700
     37 H37        -3.6033    5.0227   54.7189 H       1  ZINC000876376999    0.0700
     38 H38        -3.8929    3.8793   56.0527 H       1  ZINC000876376999    0.0800
     39 H39        -1.9368    3.2324   54.6012 H       1  ZINC000876376999    0.0700
     40 H40        -3.2187    1.9945   54.6388 H       1  ZINC000876376999    0.0700
     41 H41        -3.0439    3.3127   50.3376 H       1  ZINC000876376999    0.3900
     42 H42        -1.2639    4.2479   49.0476 H       1  ZINC000876376999    0.0800
     43 H43        -0.2068    4.0984   50.4718 H       1  ZINC000876376999    0.0700
     44 H44        -1.0766    1.5091   49.9512 H       1  ZINC000876376999    0.0900
     45 H45        -1.2250    1.0166   47.8059 H       1  ZINC000876376999    0.0900
     46 H46        -1.7889    2.6806   47.7348 H       1  ZINC000876376999    0.0900
     47 H47         1.1355    4.1981   46.2354 H       1  ZINC000876376999    0.0800
     48 H48        -0.1242    4.4518   47.4502 H       1  ZINC000876376999    0.0900
     49 H49         2.6956    4.1801   47.8141 H       1  ZINC000876376999    0.0800
     50 H50         1.4688    4.4333   49.0623 H       1  ZINC000876376999    0.0900
     51 H51         1.1446    2.6465   50.7030 H       1  ZINC000876376999    0.0900
     52 H52         1.0611    0.9899   50.1189 H       1  ZINC000876376999    0.0900
     53 H53        -4.8167    1.9668   52.4197 H       1  ZINC000876376999    0.0600
     54 H54        -4.3891    3.1899   51.1956 H       1  ZINC000876376999    0.1000
@<TRIPOS>BOND
     1     1     2    1
     2     1    27    1
     3     1    28    1
     4     1    29    1
     5     2     3    1
     6     2    30    1
     7     2    31    1
     8     3    26    1
     9     3     4    1
    10     3     6    1
    11     4     5    1
    12     4    32    1
    13     4    33    1
    14     5    34    1
    15     6     7    1
    16     6    35    1
    17     6    36    1
    18     7     8    1
    19     7    37    1
    20     7    38    1
    21     8     9    1
    22     8    39    1
    23     8    40    1
    24     9    10   am
    25     9    26    1
    26    10    11    2
    27    10    12   am
    28    12    13    1
    29    12    41    1
    30    13    14    1
    31    13    42    1
    32    13    43    1
    33    14    22    1
    34    14    15    1
    35    14    44    1
    36    15    16    1
    37    15    45    1
    38    15    46    1
    39    16    17    1
    40    16    23    1
    41    16    18    1
    42    18    19    1
    43    18    47    1
    44    18    48    1
    45    19    20    1
    46    19    49    1
    47    19    50    1
    48    20    21    1
    49    20    22    1
    50    20    23    1
    51    22    51    1
    52    22    52    1
    53    23    24    2
    54    23    25    2
    55    26    53    1
    56    26    54    1
@<TRIPOS>SUBSTRUCTURE
     1 ZINC000876376999        1 TEMP              0 ****  ****    0 ROOT


##########                                Name:    ZINC001345966764
##########                DOCK_Rotatable_Bonds:                  10
##########                         Heavy_Atoms:                  22
##########                    Molecular_Weight:             333.258
##########                DOCK_Rotatable_Bonds:                  10
##########                       Formal_Charge:           0.0099997
##########                     HBond_Acceptors:                  11
##########                        HBond_Donors:                   4
##########                         Heavy_Atoms:                  22
##########                          Grid_Score:          -24.974398
##########                     Grid_vdw_energy:          -22.303101
##########                      Grid_es_energy:           -2.671297
##########           Internal_energy_repulsive:            4.573473

@<TRIPOS>MOLECULE
ZINC001345966764
 38 38 1 0 0
SMALL
USER_CHARGES


@<TRIPOS>ATOM
      1 N1         -3.8172    2.7982   55.5343 N.3     1  ZINC001345966764   -0.8400
      2 C2         -2.4620    2.7472   54.9695 C.3     1  ZINC001345966764    0.0200
      3 C3         -2.2422    3.9585   54.0611 C.3     1  ZINC001345966764    0.2800
      4 F4         -3.2107    4.9298   54.3365 F       1  ZINC001345966764   -0.1900
      5 F5         -0.9692    4.4906   54.2931 F       1  ZINC001345966764   -0.1800
      6 C6         -2.3553    3.5259   52.5979 C.3     1  ZINC001345966764    0.0800
      7 N7         -3.6854    2.9609   52.3572 N.am    1  ZINC001345966764   -0.7000
      8 C8         -4.0444    2.5891   51.1124 C.2     1  ZINC001345966764    0.5100
      9 O9         -3.2666    2.7238   50.1909 O.2     1  ZINC001345966764   -0.5100
     10 C10        -5.4007    2.0111   50.8671 C.2     1  ZINC001345966764    0.5100
     11 O11        -5.8739    2.0269   49.7499 O.2     1  ZINC001345966764   -0.5100
     12 N12        -6.0980    1.4725   51.8869 N.am    1  ZINC001345966764   -0.7000
     13 C13        -7.4268    0.9042   51.6461 C.3     1  ZINC001345966764    0.1200
     14 C14        -8.0494    0.4808   52.9780 C.3     1  ZINC001345966764    0.0600
     15 H15        -7.4911   -0.3497   53.4101 H       1  ZINC001345966764    0.0900
     16 C16        -8.0840    1.6737   53.9588 C.3     1  ZINC001345966764   -0.1400
     17 C17        -9.4204    1.4996   54.7147 C.3     1  ZINC001345966764   -0.1500
     18 C18       -10.0350    0.2221   54.1010 C.3     1  ZINC001345966764    0.0300
     19 H19        -9.7829   -0.6487   54.7061 H       1  ZINC001345966764    0.1200
     20 C20       -11.5536    0.3655   53.9827 C.3     1  ZINC001345966764    0.4600
     21 F21       -12.1180   -0.8797   53.6857 F       1  ZINC001345966764   -0.1700
     22 F22       -12.0733    0.8362   55.1933 F       1  ZINC001345966764   -0.1700
     23 F23       -11.8584    1.2713   52.9610 F       1  ZINC001345966764   -0.1700
     24 O24        -9.4336    0.1130   52.7915 O.3     1  ZINC001345966764   -0.3500
     25 H25        -3.9387    3.6183   56.1094 H       1  ZINC001345966764    0.3500
     26 H26        -4.5142    2.7608   54.8058 H       1  ZINC001345966764    0.3600
     27 H27        -1.7308    2.7617   55.7777 H       1  ZINC001345966764    0.1100
     28 H28        -2.3444    1.8319   54.3894 H       1  ZINC001345966764    0.0700
     29 H29        -2.2051    4.3900   51.9509 H       1  ZINC001345966764    0.1100
     30 H30        -1.5965    2.7738   52.3818 H       1  ZINC001345966764    0.1100
     31 H31        -4.3077    2.8544   53.0936 H       1  ZINC001345966764    0.4200
     32 H32        -5.7203    1.4609   52.7802 H       1  ZINC001345966764    0.4200
     33 H33        -8.0609    1.6521   51.1700 H       1  ZINC001345966764    0.1000
     34 H34        -7.3376    0.0352   50.9942 H       1  ZINC001345966764    0.0900
     35 H35        -7.2440    1.6230   54.6516 H       1  ZINC001345966764    0.0900
     36 H36        -8.0740    2.6173   53.4132 H       1  ZINC001345966764    0.0900
     37 H37        -9.2410    1.3629   55.7811 H       1  ZINC001345966764    0.1000
     38 H38       -10.0709    2.3571   54.5427 H       1  ZINC001345966764    0.0900
@<TRIPOS>BOND
     1     1     2    1
     2     1    25    1
     3     1    26    1
     4     2     3    1
     5     2    27    1
     6     2    28    1
     7     3     4    1
     8     3     5    1
     9     3     6    1
    10     6     7    1
    11     6    29    1
    12     6    30    1
    13     7     8   am
    14     7    31    1
    15     8     9    2
    16     8    10    1
    17    10    11    2
    18    10    12   am
    19    12    13    1
    20    12    32    1
    21    13    14    1
    22    13    33    1
    23    13    34    1
    24    14    15    1
    25    14    24    1
    26    14    16    1
    27    16    17    1
    28    16    35    1
    29    16    36    1
    30    17    18    1
    31    17    37    1
    32    17    38    1
    33    18    19    1
    34    18    20    1
    35    18    24    1
    36    20    21    1
    37    20    22    1
    38    20    23    1
@<TRIPOS>SUBSTRUCTURE
     1 ZINC001345966764        1 TEMP              0 ****  ****    0 ROOT


##########                                Name:    ZINC000742270208
##########                DOCK_Rotatable_Bonds:                   5
##########                         Heavy_Atoms:                  25
##########                    Molecular_Weight:             376.328
##########                DOCK_Rotatable_Bonds:                   5
##########                       Formal_Charge:                0.02
##########                     HBond_Acceptors:                   9
##########                        HBond_Donors:                   0
##########                         Heavy_Atoms:                  25
##########                          Grid_Score:          -24.960335
##########                     Grid_vdw_energy:          -25.117836
##########                      Grid_es_energy:            0.157502
##########           Internal_energy_repulsive:            9.842772

@<TRIPOS>MOLECULE
ZINC000742270208
 37 38 1 0 0
SMALL
USER_CHARGES


@<TRIPOS>ATOM
      1 C1         -5.4523    2.4957   51.1606 C.3     1  ZINC000742270208   -0.1400
      2 C2         -6.6435    2.3876   52.1147 C.3     1  ZINC000742270208   -0.1400
      3 C3         -7.7178    3.3974   51.7059 C.3     1  ZINC000742270208   -0.1400
      4 C4         -7.2136    0.9941   52.0505 C.2     1  ZINC000742270208    0.4000
      5 O5         -6.7445    0.1819   51.2821 O.2     1  ZINC000742270208   -0.4300
      6 C6         -8.3398    0.6190   52.9205 C.ar    1  ZINC000742270208   -0.1000
      7 C7         -9.3128   -0.2758   52.4641 C.ar    1  ZINC000742270208   -0.0900
      8 C8        -10.3651   -0.6222   53.2852 C.ar    1  ZINC000742270208   -0.0200
      9 C9        -10.4598   -0.0867   54.5578 C.ar    1  ZINC000742270208   -0.6800
     10 S10       -11.8082   -0.5358   55.5994 S.o2    1  ZINC000742270208    2.6600
     11 O11       -11.8104    0.3923   56.6755 O.2     1  ZINC000742270208   -0.9300
     12 O12       -12.9254   -0.7378   54.7449 O.2     1  ZINC000742270208   -0.9000
     13 O13       -11.4781   -1.8933   56.2035 O.3     1  ZINC000742270208   -0.6400
     14 C14       -11.9893   -2.0834   57.4495 C.ar    1  ZINC000742270208    0.0500
     15 C15       -13.3181   -2.4527   57.6066 C.ar    1  ZINC000742270208    0.0900
     16 F16       -14.1050   -2.6236   56.5218 F       1  ZINC000742270208   -0.0900
     17 C17       -13.8367   -2.6463   58.8766 C.ar    1  ZINC000742270208    0.1100
     18 F18       -15.1299   -3.0057   59.0301 F       1  ZINC000742270208   -0.1000
     19 C19       -13.0305   -2.4722   59.9884 C.ar    1  ZINC000742270208   -0.1100
     20 C20       -11.7050   -2.1036   59.8338 C.ar    1  ZINC000742270208    0.1200
     21 F21       -10.9203   -1.9342   60.9204 F       1  ZINC000742270208   -0.1000
     22 C22       -11.1813   -1.9141   58.5653 C.ar    1  ZINC000742270208    0.1200
     23 F23        -9.8877   -1.5548   58.4149 F       1  ZINC000742270208   -0.0900
     24 C24        -9.5008    0.7993   55.0169 C.ar    1  ZINC000742270208   -0.0300
     25 C25        -8.4393    1.1510   54.2101 C.ar    1  ZINC000742270208   -0.0800
     26 H26        -5.0400    3.5037   51.2070 H       1  ZINC000742270208    0.0700
     27 H27        -4.6871    1.7763   51.4518 H       1  ZINC000742270208    0.0600
     28 H28        -5.7814    2.2843   50.1432 H       1  ZINC000742270208    0.0600
     29 H29        -6.3145    2.5990   53.1321 H       1  ZINC000742270208    0.1000
     30 H30        -8.0468    3.1860   50.6885 H       1  ZINC000742270208    0.0700
     31 H31        -8.5665    3.3203   52.3856 H       1  ZINC000742270208    0.0600
     32 H32        -7.3054    4.4054   51.7523 H       1  ZINC000742270208    0.0700
     33 H33        -9.2407   -0.6939   51.4709 H       1  ZINC000742270208    0.1500
     34 H34       -11.1174   -1.3130   52.9341 H       1  ZINC000742270208    0.1500
     35 H35       -13.4361   -2.6239   60.9779 H       1  ZINC000742270208    0.1900
     36 H36        -9.5816    1.2130   56.0112 H       1  ZINC000742270208    0.1500
     37 H37        -7.6917    1.8425   54.5697 H       1  ZINC000742270208    0.1500
@<TRIPOS>BOND
     1     1     2    1
     2     1    26    1
     3     1    27    1
     4     1    28    1
     5     2     3    1
     6     2     4    1
     7     2    29    1
     8     3    30    1
     9     3    31    1
    10     3    32    1
    11     4     5    2
    12     4     6    1
    13     6    25   ar
    14     6     7   ar
    15     7     8   ar
    16     7    33    1
    17     8     9   ar
    18     8    34    1
    19     9    10    1
    20     9    24   ar
    21    10    11    2
    22    10    12    2
    23    10    13    1
    24    13    14    1
    25    14    22   ar
    26    14    15   ar
    27    15    16    1
    28    15    17   ar
    29    17    18    1
    30    17    19   ar
    31    19    20   ar
    32    19    35    1
    33    20    21    1
    34    20    22   ar
    35    22    23    1
    36    24    25   ar
    37    24    36    1
    38    25    37    1
@<TRIPOS>SUBSTRUCTURE
     1 ZINC000742270208        1 TEMP              0 ****  ****    0 ROOT


##########                                Name:    ZINC001045463759
##########                DOCK_Rotatable_Bonds:                   6
##########                         Heavy_Atoms:                  24
##########                    Molecular_Weight:             336.385
##########                DOCK_Rotatable_Bonds:                   6
##########                       Formal_Charge:          1.3411e-07
##########                     HBond_Acceptors:                   7
##########                        HBond_Donors:                   2
##########                         Heavy_Atoms:                  24
##########                          Grid_Score:          -24.957920
##########                     Grid_vdw_energy:          -25.236418
##########                      Grid_es_energy:            0.278497
##########           Internal_energy_repulsive:            6.985956

@<TRIPOS>MOLECULE
ZINC001045463759
 46 49 1 0 0
SMALL
USER_CHARGES


@<TRIPOS>ATOM
      1 O1        -14.2987   -2.1428   55.8182 O.2     1  ZINC001045463759   -0.5100
      2 C2        -13.5110   -1.2296   55.9473 C.2     1  ZINC001045463759    0.5400
      3 N3        -13.1856   -0.7895   57.1789 N.am    1  ZINC001045463759   -0.7200
      4 C4        -13.7880   -1.4100   58.3614 C.3     1  ZINC001045463759    0.1400
      5 H5        -14.0801   -2.4333   58.1258 H       1  ZINC001045463759    0.1000
      6 C6        -15.0231   -0.6114   58.7831 C.3     1  ZINC001045463759   -0.1300
      7 C7        -15.6523   -1.2595   60.0180 C.3     1  ZINC001045463759   -0.1200
      8 C8        -14.6364   -1.2697   61.1621 C.3     1  ZINC001045463759   -0.1200
      9 C9        -13.4014   -2.0682   60.7405 C.3     1  ZINC001045463759   -0.1300
     10 C10       -12.7722   -1.4202   59.5055 C.3     1  ZINC001045463759    0.1500
     11 H11       -12.4802   -0.3968   59.7412 H       1  ZINC001045463759    0.0900
     12 N12       -11.5896   -2.1848   59.1018 N.pl3   1  ZINC001045463759   -0.7100
     13 C13       -10.3354   -1.8133   59.5583 C.ar    1  ZINC001045463759    0.4400
     14 C14        -9.2026   -2.5426   59.1921 C.ar    1  ZINC001045463759   -0.3000
     15 C15        -7.9748   -2.1320   59.6733 C.ar    1  ZINC001045463759    0.1800
     16 N16        -7.9120   -1.0675   60.4606 N.ar    1  ZINC001045463759   -0.5600
     17 C17        -9.0000   -0.4001   60.7882 C.ar    1  ZINC001045463759    0.4000
     18 C18        -8.8785    0.8040   61.6863 C.3     1  ZINC001045463759   -0.1100
     19 C19        -9.6856    0.8000   62.9861 C.3     1  ZINC001045463759   -0.1500
     20 C20        -8.1673    0.6156   63.0279 C.3     1  ZINC001045463759   -0.1500
     21 N21       -10.1907   -0.7529   60.3479 N.ar    1  ZINC001045463759   -0.5700
     22 C22       -12.8912   -0.5913   54.7309 C.3     1  ZINC001045463759   -0.2000
     23 H23       -13.5788   -0.3694   53.9147 H       1  ZINC001045463759    0.1500
     24 C24       -11.7266    0.3750   54.9561 C.3     1  ZINC001045463759   -0.1500
     25 C25       -11.4673   -1.0113   54.3608 C.3     1  ZINC001045463759    0.2300
     26 F26       -10.8400   -1.9581   55.1777 F       1  ZINC001045463759   -0.1400
     27 F27       -11.1470   -1.0806   53.0008 F       1  ZINC001045463759   -0.1500
     28 H28       -12.5526   -0.0618   57.2825 H       1  ZINC001045463759    0.4000
     29 H29       -14.7311    0.4119   59.0187 H       1  ZINC001045463759    0.0700
     30 H30       -15.7469   -0.6042   57.9680 H       1  ZINC001045463759    0.0800
     31 H31       -16.5322   -0.6906   60.3185 H       1  ZINC001045463759    0.0700
     32 H32       -15.9444   -2.2828   59.7824 H       1  ZINC001045463759    0.0700
     33 H33       -14.3444   -0.2463   61.3978 H       1  ZINC001045463759    0.0700
     34 H34       -15.0847   -1.7313   62.0419 H       1  ZINC001045463759    0.0700
     35 H35       -12.6777   -2.0755   61.5555 H       1  ZINC001045463759    0.0700
     36 H36       -13.6934   -3.0916   60.5048 H       1  ZINC001045463759    0.0700
     37 H37       -11.6847   -2.9511   58.5148 H       1  ZINC001045463759    0.4100
     38 H38        -9.2843   -3.4065   58.5490 H       1  ZINC001045463759    0.1400
     39 H39        -7.0768   -2.6719   59.4115 H       1  ZINC001045463759    0.1700
     40 H40        -8.7481    1.7589   61.1773 H       1  ZINC001045463759    0.1300
     41 H41       -10.0866    1.7527   63.3323 H       1  ZINC001045463759    0.1000
     42 H42       -10.3046   -0.0734   63.1915 H       1  ZINC001045463759    0.1100
     43 H43        -7.7874   -0.3791   63.2608 H       1  ZINC001045463759    0.1000
     44 H44        -7.5694    1.4468   63.4016 H       1  ZINC001045463759    0.1000
     45 H45       -11.6476    1.2324   54.2878 H       1  ZINC001045463759    0.1400
     46 H46       -11.4086    0.5490   55.9841 H       1  ZINC001045463759    0.1300
@<TRIPOS>BOND
     1     1     2    2
     2     2     3   am
     3     2    22    1
     4     3     4    1
     5     3    28    1
     6     4     5    1
     7     4    10    1
     8     4     6    1
     9     6     7    1
    10     6    29    1
    11     6    30    1
    12     7     8    1
    13     7    31    1
    14     7    32    1
    15     8     9    1
    16     8    33    1
    17     8    34    1
    18     9    10    1
    19     9    35    1
    20     9    36    1
    21    10    11    1
    22    10    12    1
    23    12    13    1
    24    12    37    1
    25    13    21   ar
    26    13    14   ar
    27    14    15   ar
    28    14    38    1
    29    15    16   ar
    30    15    39    1
    31    16    17   ar
    32    17    18    1
    33    17    21   ar
    34    18    20    1
    35    18    19    1
    36    18    40    1
    37    19    20    1
    38    19    41    1
    39    19    42    1
    40    20    43    1
    41    20    44    1
    42    22    23    1
    43    22    25    1
    44    22    24    1
    45    24    25    1
    46    24    45    1
    47    24    46    1
    48    25    26    1
    49    25    27    1
@<TRIPOS>SUBSTRUCTURE
     1 ZINC001045463759        1 TEMP              0 ****  ****    0 ROOT


##########                                Name:    ZINC000444205493
##########                DOCK_Rotatable_Bonds:                   4
##########                         Heavy_Atoms:                  24
##########                    Molecular_Weight:             415.351
##########                DOCK_Rotatable_Bonds:                   4
##########                       Formal_Charge:         -0.00999995
##########                     HBond_Acceptors:                   6
##########                        HBond_Donors:                   1
##########                         Heavy_Atoms:                  24
##########                          Grid_Score:          -24.930380
##########                     Grid_vdw_energy:          -24.660639
##########                      Grid_es_energy:           -0.269741
##########           Internal_energy_repulsive:            5.376696

@<TRIPOS>MOLECULE
ZINC000444205493
 47 49 1 0 0
SMALL
USER_CHARGES


@<TRIPOS>ATOM
      1 C1         -0.9206    4.6505   56.4458 C.3     1  ZINC000444205493   -0.1700
      2 C2         -1.9323    4.4090   55.3553 C.2     1  ZINC000444205493    0.5100
      3 O3         -2.0896    5.2343   54.4805 O.2     1  ZINC000444205493   -0.5100
      4 N4         -2.6623    3.2761   55.3521 N.am    1  ZINC000444205493   -0.6800
      5 C5         -3.6018    3.0518   54.3393 C.ar    1  ZINC000444205493    0.2300
      6 C6         -3.1836    2.8928   53.0252 C.ar    1  ZINC000444205493   -0.1400
      7 C7         -4.1134    2.6710   52.0278 C.ar    1  ZINC000444205493    0.0200
      8 C8         -5.4595    2.6079   52.3367 C.ar    1  ZINC000444205493   -0.6900
      9 S9         -6.6418    2.3254   51.0611 S.o2    1  ZINC000444205493    2.7100
     10 O10        -6.9920    3.6036   50.5483 O.2     1  ZINC000444205493   -0.9500
     11 O11        -6.1181    1.2805   50.2528 O.2     1  ZINC000444205493   -0.9500
     12 N12        -8.0050    1.7210   51.7812 N.am    1  ZINC000444205493   -1.0100
     13 C13        -8.0824    0.4752   52.5675 C.3     1  ZINC000444205493    0.1200
     14 C14        -9.3099    0.6637   53.4964 C.3     1  ZINC000444205493   -0.1200
     15 C15       -10.2683    1.4511   52.5819 C.3     1  ZINC000444205493   -0.0700
     16 C16       -11.0827    0.5012   51.6976 C.3     1  ZINC000444205493   -0.1100
     17 C17       -12.4439    0.3824   52.4322 C.3     1  ZINC000444205493   -0.1200
     18 C18       -12.6655    1.8141   52.9831 C.3     1  ZINC000444205493   -0.1000
     19 H19       -13.0675    2.4639   52.2057 H       1  ZINC000444205493    0.0700
     20 C20       -13.6034    1.7835   54.1914 C.3     1  ZINC000444205493   -0.1500
     21 C21       -11.2536    2.2824   53.4026 C.3     1  ZINC000444205493   -0.1100
     22 C22        -9.3405    2.3414   51.7486 C.3     1  ZINC000444205493    0.1300
     23 C23        -5.8802    2.7654   53.6446 C.ar    1  ZINC000444205493    0.0300
     24 C24        -4.9551    2.9821   54.6478 C.ar    1  ZINC000444205493   -0.1500
     25 Br25       -5.5308    3.1975   56.4361 Br      1  ZINC000444205493   -0.0300
     26 H26        -0.4322    5.6111   56.2821 H       1  ZINC000444205493    0.1000
     27 H27        -1.4236    4.6587   57.4128 H       1  ZINC000444205493    0.1000
     28 H28        -0.1742    3.8563   56.4313 H       1  ZINC000444205493    0.1000
     29 H29        -2.5365    2.6161   56.0518 H       1  ZINC000444205493    0.4200
     30 H30        -2.1323    2.9426   52.7828 H       1  ZINC000444205493    0.1600
     31 H31        -3.7883    2.5472   51.0053 H       1  ZINC000444205493    0.1500
     32 H32        -8.2334   -0.3800   51.9086 H       1  ZINC000444205493    0.0800
     33 H33        -7.1762    0.3435   53.1588 H       1  ZINC000444205493    0.0800
     34 H34        -9.7393   -0.2981   53.7771 H       1  ZINC000444205493    0.0900
     35 H35        -9.0463    1.2453   54.3798 H       1  ZINC000444205493    0.0800
     36 H36       -11.2204    0.9275   50.7039 H       1  ZINC000444205493    0.0700
     37 H37       -10.5967   -0.4723   51.6331 H       1  ZINC000444205493    0.0700
     38 H38       -13.2362    0.1104   51.7349 H       1  ZINC000444205493    0.0700
     39 H39       -12.3809   -0.3389   53.2469 H       1  ZINC000444205493    0.0700
     40 H40       -13.1778    1.1453   54.9657 H       1  ZINC000444205493    0.0500
     41 H41       -13.7274    2.7940   54.5809 H       1  ZINC000444205493    0.0500
     42 H42       -14.5736    1.3895   53.8885 H       1  ZINC000444205493    0.0500
     43 H43       -11.1000    2.1031   54.4667 H       1  ZINC000444205493    0.0700
     44 H44       -11.1280    3.3417   53.1784 H       1  ZINC000444205493    0.0700
     45 H45        -9.3021    3.3428   52.1773 H       1  ZINC000444205493    0.0700
     46 H46        -9.6971    2.3902   50.7197 H       1  ZINC000444205493    0.0800
     47 H47        -6.9324    2.7151   53.8828 H       1  ZINC000444205493    0.1500
@<TRIPOS>BOND
     1     1     2    1
     2     1    26    1
     3     1    27    1
     4     1    28    1
     5     2     3    2
     6     2     4   am
     7     4     5    1
     8     4    29    1
     9     5    24   ar
    10     5     6   ar
    11     6     7   ar
    12     6    30    1
    13     7     8   ar
    14     7    31    1
    15     8     9    1
    16     8    23   ar
    17     9    10    2
    18     9    11    2
    19     9    12   am
    20    12    22    1
    21    12    13    1
    22    13    14    1
    23    13    32    1
    24    13    33    1
    25    14    15    1
    26    14    34    1
    27    14    35    1
    28    15    21    1
    29    15    16    1
    30    15    22    1
    31    16    17    1
    32    16    36    1
    33    16    37    1
    34    17    18    1
    35    17    38    1
    36    17    39    1
    37    18    19    1
    38    18    20    1
    39    18    21    1
    40    20    40    1
    41    20    41    1
    42    20    42    1
    43    21    43    1
    44    21    44    1
    45    22    45    1
    46    22    46    1
    47    23    24   ar
    48    23    47    1
    49    24    25    1
@<TRIPOS>SUBSTRUCTURE
     1 ZINC000444205493        1 TEMP              0 ****  ****    0 ROOT


##########                                Name:    ZINC000826052721
##########                DOCK_Rotatable_Bonds:                   3
##########                         Heavy_Atoms:                  29
##########                    Molecular_Weight:             393.399
##########                DOCK_Rotatable_Bonds:                   3
##########                       Formal_Charge:        -4.47035e-07
##########                     HBond_Acceptors:                   9
##########                        HBond_Donors:                   2
##########                         Heavy_Atoms:                  29
##########                          Grid_Score:          -24.890272
##########                     Grid_vdw_energy:          -23.780058
##########                      Grid_es_energy:           -1.110213
##########           Internal_energy_repulsive:           19.883049

@<TRIPOS>MOLECULE
ZINC000826052721
 46 50 1 0 0
SMALL
USER_CHARGES


@<TRIPOS>ATOM
      1 C1        -11.0715   -3.2103   58.8109 C.3     1  ZINC000826052721   -0.0400
      2 N2        -11.2780   -2.5167   57.5325 N.4     1  ZINC000826052721   -0.3800
      3 H3        -10.7856   -3.0053   56.7998 H       1  ZINC000826052721    0.4300
      4 C4        -10.7733   -1.1442   57.6319 C.3     1  ZINC000826052721    0.0500
      5 C5        -11.1057   -0.3663   56.3862 C.ar    1  ZINC000826052721   -0.1300
      6 C6        -10.3965    0.7953   56.1210 C.ar    1  ZINC000826052721   -0.1000
      7 C7        -10.6750    1.5405   54.9925 C.ar    1  ZINC000826052721   -0.1000
      8 C8        -11.6657    1.1277   54.1215 C.ar    1  ZINC000826052721   -0.0800
      9 C9        -12.3721   -0.0298   54.3832 C.ar    1  ZINC000826052721   -0.0800
     10 C10       -12.0923   -0.7787   55.5152 C.ar    1  ZINC000826052721   -0.1200
     11 C11       -12.8834   -2.0376   55.7632 C.3     1  ZINC000826052721    0.1100
     12 H12       -12.5243   -2.8273   55.1032 H       1  ZINC000826052721    0.1100
     13 N13       -14.3045   -1.7829   55.4919 N.3     1  ZINC000826052721   -0.6200
     14 C14       -15.0183   -1.6547   56.6690 C.ar    1  ZINC000826052721    0.1600
     15 C15       -15.5347   -2.7764   57.3268 C.ar    1  ZINC000826052721   -0.0400
     16 C16       -15.3250   -4.1291   56.7711 C.2     1  ZINC000826052721    0.0700
     17 N17       -15.1373   -5.2564   57.4614 N.2     1  ZINC000826052721   -0.3800
     18 N18       -14.9976   -6.2135   56.6090 N.2     1  ZINC000826052721   -0.1600
     19 N19       -15.0799   -5.7364   55.4167 N.2     1  ZINC000826052721   -0.1700
     20 N20       -15.2800   -4.4644   55.4795 N.pl3   1  ZINC000826052721   -0.3400
     21 C21       -16.2492   -2.6045   58.5210 C.ar    1  ZINC000826052721    0.1800
     22 N22       -16.4549   -1.4176   59.0340 N.ar    1  ZINC000826052721   -0.4700
     23 C23       -15.9917   -0.3037   58.4512 C.ar    1  ZINC000826052721    0.0900
     24 C24       -16.2288    0.9594   59.0233 C.ar    1  ZINC000826052721    0.1700
     25 F25       -16.9291    1.0614   60.1740 F       1  ZINC000826052721   -0.1100
     26 C26       -15.7486    2.0805   58.4131 C.ar    1  ZINC000826052721   -0.1900
     27 C27       -15.0240    1.9966   57.2256 C.ar    1  ZINC000826052721    0.1300
     28 F28       -14.5615    3.1251   56.6443 F       1  ZINC000826052721   -0.1300
     29 C29       -14.7764    0.7873   56.6429 C.ar    1  ZINC000826052721   -0.1500
     30 C30       -15.2557   -0.3844   57.2452 C.ar    1  ZINC000826052721   -0.0600
     31 C31       -12.7142   -2.4754   57.2187 C.3     1  ZINC000826052721    0.0000
     32 H32       -11.6069   -2.6834   59.6008 H       1  ZINC000826052721    0.1200
     33 H33       -11.4473   -4.2308   58.7355 H       1  ZINC000826052721    0.1300
     34 H34       -10.0072   -3.2315   59.0449 H       1  ZINC000826052721    0.1200
     35 H35        -9.6914   -1.1677   57.7631 H       1  ZINC000826052721    0.1400
     36 H36       -11.2285   -0.6554   58.4932 H       1  ZINC000826052721    0.1400
     37 H37        -9.6220    1.1187   56.8006 H       1  ZINC000826052721    0.1300
     38 H38       -10.1195    2.4443   54.7904 H       1  ZINC000826052721    0.1300
     39 H39       -11.8866    1.7087   53.2383 H       1  ZINC000826052721    0.1300
     40 H40       -13.1457   -0.3530   53.7025 H       1  ZINC000826052721    0.1400
     41 H41       -14.6966   -2.5064   54.9083 H       1  ZINC000826052721    0.4100
     42 H42       -16.6433   -3.4728   59.0282 H       1  ZINC000826052721    0.1800
     43 H43       -15.9330    3.0479   58.8565 H       1  ZINC000826052721    0.1600
     44 H44       -14.2143    0.7335   55.7222 H       1  ZINC000826052721    0.1400
     45 H45       -13.2128   -1.7626   57.8755 H       1  ZINC000826052721    0.1400
     46 H46       -13.1461   -3.4669   57.3551 H       1  ZINC000826052721    0.1400
@<TRIPOS>BOND
     1     1     2    1
     2     1    32    1
     3     1    33    1
     4     1    34    1
     5     2     3    1
     6     2    31    1
     7     2     4    1
     8     4     5    1
     9     4    35    1
    10     4    36    1
    11     5    10   ar
    12     5     6   ar
    13     6     7   ar
    14     6    37    1
    15     7     8   ar
    16     7    38    1
    17     8     9   ar
    18     8    39    1
    19     9    10   ar
    20     9    40    1
    21    10    11    1
    22    11    12    1
    23    11    13    1
    24    11    31    1
    25    13    14    1
    26    13    41    1
    27    14    30   ar
    28    14    15   ar
    29    15    16    1
    30    15    21   ar
    31    16    20    1
    32    16    17    2
    33    17    18    1
    34    18    19    2
    35    19    20    1
    36    21    22   ar
    37    21    42    1
    38    22    23   ar
    39    23    30   ar
    40    23    24   ar
    41    24    25    1
    42    24    26   ar
    43    26    27   ar
    44    26    43    1
    45    27    28    1
    46    27    29   ar
    47    29    30   ar
    48    29    44    1
    49    31    45    1
    50    31    46    1
@<TRIPOS>SUBSTRUCTURE
     1 ZINC000826052721        1 TEMP              0 ****  ****    0 ROOT


##########                                Name:    ZINC001362451754
##########                DOCK_Rotatable_Bonds:                   6
##########                         Heavy_Atoms:                  22
##########                    Molecular_Weight:             339.846
##########                DOCK_Rotatable_Bonds:                   6
##########                       Formal_Charge:         -0.00999987
##########                     HBond_Acceptors:                   7
##########                        HBond_Donors:                   1
##########                         Heavy_Atoms:                  22
##########                          Grid_Score:          -24.887201
##########                     Grid_vdw_energy:          -24.243473
##########                      Grid_es_energy:           -0.643728
##########           Internal_energy_repulsive:           17.443047

@<TRIPOS>MOLECULE
ZINC001362451754
 40 42 1 0 0
SMALL
USER_CHARGES


@<TRIPOS>ATOM
      1 C1        -11.5778   -0.0122   61.7213 C.3     1  ZINC001362451754   -0.1700
      2 C2        -10.6610    0.8699   60.8713 C.3     1  ZINC001362451754    0.1400
      3 H3        -10.9607    1.9140   60.9606 H       1  ZINC001362451754    0.0800
      4 C4         -9.1975    0.7026   61.3316 C.3     1  ZINC001362451754   -0.1000
      5 H5         -8.6584    1.6468   61.2533 H       1  ZINC001362451754    0.1000
      6 C6         -9.1381    0.1607   62.7612 C.3     1  ZINC001362451754    0.0900
      7 O7         -7.7748    0.0672   63.1790 O.3     1  ZINC001362451754   -0.5700
      8 C8         -8.6338   -0.3364   60.3268 C.3     1  ZINC001362451754   -0.1200
      9 C9         -9.3767    0.0506   59.0263 C.3     1  ZINC001362451754    0.0900
     10 N10       -10.7267    0.4494   59.4640 N.am    1  ZINC001362451754   -0.6100
     11 C11       -11.8383    0.4267   58.7021 C.2     1  ZINC001362451754    0.6100
     12 O12       -12.9044    0.7800   59.1707 O.2     1  ZINC001362451754   -0.5200
     13 C13       -11.7629   -0.0235   57.3092 C.2     1  ZINC001362451754   -0.2500
     14 C14       -12.0532   -1.2833   56.8665 C.2     1  ZINC001362451754   -0.0500
     15 C15       -11.8921   -1.4334   55.5096 C.2     1  ZINC001362451754   -0.1100
     16 C16       -11.4940   -0.3332   54.8601 C.2     1  ZINC001362451754   -0.2500
     17 C17       -11.2558   -0.2579   53.3740 C.3     1  ZINC001362451754    0.2100
     18 N18        -9.8558    0.0914   53.1208 N.pl3   1  ZINC001362451754   -0.3700
     19 C19        -9.1287   -0.2721   52.0425 C.2     1  ZINC001362451754    0.0700
     20 C20        -7.8890    0.2528   52.1852 C.2     1  ZINC001362451754   -0.1800
     21 Cl21       -6.5722    0.0815   51.0670 Cl      1  ZINC001362451754   -0.0400
     22 C22        -7.8550    0.9527   53.3964 C.2     1  ZINC001362451754    0.0700
     23 N23        -9.0330    0.8565   53.9575 N.2     1  ZINC001362451754   -0.2700
     24 S24       -11.2840    0.9707   55.9403 S.3     1  ZINC001362451754    0.2300
     25 H25       -11.2746   -1.0544   61.6208 H       1  ZINC001362451754    0.0600
     26 H26       -11.5043    0.2885   62.7665 H       1  ZINC001362451754    0.0700
     27 H27       -12.6075    0.1010   61.3822 H       1  ZINC001362451754    0.0700
     28 H28        -9.6771    0.8341   63.4277 H       1  ZINC001362451754    0.0500
     29 H29        -9.5970   -0.8275   62.7944 H       1  ZINC001362451754    0.0500
     30 H30        -7.1362    0.3077   62.4939 H       1  ZINC001362451754    0.3800
     31 H31        -7.5557   -0.2234   60.2114 H       1  ZINC001362451754    0.0900
     32 H32        -8.8877   -1.3519   60.6310 H       1  ZINC001362451754    0.0800
     33 H33        -9.4334   -0.8043   58.3525 H       1  ZINC001362451754    0.0800
     34 H34        -8.8737    0.8859   58.5391 H       1  ZINC001362451754    0.0800
     35 H35       -12.3732   -2.0827   57.5185 H       1  ZINC001362451754    0.1600
     36 H36       -12.0769   -2.3698   55.0041 H       1  ZINC001362451754    0.1500
     37 H37       -11.4766   -1.2245   52.9211 H       1  ZINC001362451754    0.1100
     38 H38       -11.9043    0.5032   52.9402 H       1  ZINC001362451754    0.1100
     39 H39        -9.4748   -0.8717   51.2136 H       1  ZINC001362451754    0.1800
     40 H40        -7.0031    1.4809   53.7987 H       1  ZINC001362451754    0.1900
@<TRIPOS>BOND
     1     1     2    1
     2     1    25    1
     3     1    26    1
     4     1    27    1
     5     2     3    1
     6     2    10    1
     7     2     4    1
     8     4     5    1
     9     4     6    1
    10     4     8    1
    11     6     7    1
    12     6    28    1
    13     6    29    1
    14     7    30    1
    15     8     9    1
    16     8    31    1
    17     8    32    1
    18     9    10    1
    19     9    33    1
    20     9    34    1
    21    10    11   am
    22    11    12    2
    23    11    13    1
    24    13    24    1
    25    13    14    2
    26    14    15    1
    27    14    35    1
    28    15    16    2
    29    15    36    1
    30    16    17    1
    31    16    24    1
    32    17    18    1
    33    17    37    1
    34    17    38    1
    35    18    23    1
    36    18    19    1
    37    19    20    2
    38    19    39    1
    39    20    21    1
    40    20    22    1
    41    22    23    2
    42    22    40    1
@<TRIPOS>SUBSTRUCTURE
     1 ZINC001362451754        1 TEMP              0 ****  ****    0 ROOT


##########                                Name:    ZINC001023407238
##########                DOCK_Rotatable_Bonds:                   7
##########                         Heavy_Atoms:                  25
##########                    Molecular_Weight:             349.387
##########                DOCK_Rotatable_Bonds:                   7
##########                       Formal_Charge:          -0.0300008
##########                     HBond_Acceptors:                   8
##########                        HBond_Donors:                   2
##########                         Heavy_Atoms:                  25
##########                          Grid_Score:          -24.879181
##########                     Grid_vdw_energy:          -24.241009
##########                      Grid_es_energy:           -0.638172
##########           Internal_energy_repulsive:            8.068930

@<TRIPOS>MOLECULE
ZINC001023407238
 48 50 1 0 0
SMALL
USER_CHARGES


@<TRIPOS>ATOM
      1 C1        -11.9935    3.0438   50.5231 C.3     1  ZINC001023407238   -0.0900
      2 C2        -12.3698    3.0151   51.9821 C.2     1  ZINC001023407238   -0.1100
      3 C3        -12.0673    2.0197   52.8868 C.2     1  ZINC001023407238   -0.0500
      4 C4        -11.3179    0.7906   52.6051 C.2     1  ZINC001023407238    0.6100
      5 O5        -11.9112   -0.2583   52.4353 O.2     1  ZINC001023407238   -0.5100
      6 N6         -9.9724    0.8229   52.5344 N.am    1  ZINC001023407238   -0.6100
      7 C7         -9.1008   -0.3290   52.2607 C.3     1  ZINC001023407238    0.0800
      8 C8         -7.6471    0.1889   52.2495 C.3     1  ZINC001023407238    0.0900
      9 H9         -7.1755    0.0353   53.2201 H       1  ZINC001023407238    0.0800
     10 O10        -6.8919   -0.4469   51.2163 O.3     1  ZINC001023407238   -0.5500
     11 C11        -7.8197    1.7027   51.9563 C.3     1  ZINC001023407238    0.1400
     12 H12        -7.9354    1.8830   50.8876 H       1  ZINC001023407238    0.1200
     13 N13        -6.6977    2.4737   52.4976 N.am    1  ZINC001023407238   -0.7200
     14 C14        -5.8415    3.0947   51.6623 C.2     1  ZINC001023407238    0.5200
     15 O15        -5.9990    3.0140   50.4625 O.2     1  ZINC001023407238   -0.5300
     16 C16        -4.6884    3.8892   52.2192 C.3     1  ZINC001023407238   -0.1300
     17 C17        -3.4368    3.0102   52.2618 C.3     1  ZINC001023407238   -0.1100
     18 H18        -3.5950    2.1433   52.9034 H       1  ZINC001023407238    0.1100
     19 C19        -3.0221    2.5734   50.8383 C.3     1  ZINC001023407238    0.0600
     20 O20        -1.5646    2.5432   50.8773 O.3     1  ZINC001023407238   -0.3500
     21 C21        -1.1121    3.4593   51.7452 C.2     1  ZINC001023407238    0.4800
     22 O22         0.0033    3.9240   51.7461 O.2     1  ZINC001023407238   -0.4600
     23 C23        -2.2089    3.8234   52.7284 C.3     1  ZINC001023407238   -0.1800
     24 C24        -9.1312    2.0205   52.7126 C.3     1  ZINC001023407238    0.1000
     25 N25       -12.5961    2.3897   54.1027 N.pl3   1  ZINC001023407238   -0.4200
     26 C26       -12.5060    1.6171   55.3441 C.3     1  ZINC001023407238    0.0700
     27 C27       -13.2139    3.5875   53.9600 C.2     1  ZINC001023407238    0.0100
     28 C28       -13.0863    3.9960   52.6748 C.2     1  ZINC001023407238   -0.2000
     29 H29       -11.0233    3.5269   50.4075 H       1  ZINC001023407238    0.0600
     30 H30       -11.9394    2.0240   50.1418 H       1  ZINC001023407238    0.0600
     31 H31       -12.7458    3.6010   49.9647 H       1  ZINC001023407238    0.0700
     32 H32        -9.2211   -1.0789   53.0425 H       1  ZINC001023407238    0.0800
     33 H33        -9.3486   -0.7590   51.2903 H       1  ZINC001023407238    0.0800
     34 H34        -5.9459   -0.2482   51.2415 H       1  ZINC001023407238    0.3900
     35 H35        -6.5711    2.5372   53.4572 H       1  ZINC001023407238    0.4100
     36 H36        -4.5030    4.7549   51.5834 H       1  ZINC001023407238    0.1000
     37 H37        -4.9315    4.2244   53.2275 H       1  ZINC001023407238    0.1100
     38 H38        -3.4174    1.5827   50.6139 H       1  ZINC001023407238    0.1200
     39 H39        -3.3683    3.2983   50.1016 H       1  ZINC001023407238    0.0800
     40 H40        -2.4228    4.8911   52.6799 H       1  ZINC001023407238    0.1100
     41 H41        -1.9209    3.5389   53.7405 H       1  ZINC001023407238    0.1200
     42 H42        -9.6156    2.8962   52.2805 H       1  ZINC001023407238    0.0900
     43 H43        -8.9291    2.1815   53.7715 H       1  ZINC001023407238    0.0800
     44 H44       -11.6541    1.9658   55.9280 H       1  ZINC001023407238    0.0800
     45 H45       -13.4209    1.7497   55.9217 H       1  ZINC001023407238    0.0900
     46 H46       -12.3760    0.5614   55.1066 H       1  ZINC001023407238    0.0800
     47 H47       -13.7218    4.1296   54.7439 H       1  ZINC001023407238    0.1700
     48 H48       -13.4751    4.9131   52.2575 H       1  ZINC001023407238    0.1400
@<TRIPOS>BOND
     1     1     2    1
     2     1    29    1
     3     1    30    1
     4     1    31    1
     5     2    28    1
     6     2     3    2
     7     3     4    1
     8     3    25    1
     9     4     5    2
    10     4     6   am
    11     6    24    1
    12     6     7    1
    13     7     8    1
    14     7    32    1
    15     7    33    1
    16     8     9    1
    17     8    10    1
    18     8    11    1
    19    10    34    1
    20    11    12    1
    21    11    13    1
    22    11    24    1
    23    13    14   am
    24    13    35    1
    25    14    15    2
    26    14    16    1
    27    16    17    1
    28    16    36    1
    29    16    37    1
    30    17    18    1
    31    17    23    1
    32    17    19    1
    33    19    20    1
    34    19    38    1
    35    19    39    1
    36    20    21    1
    37    21    22    2
    38    21    23    1
    39    23    40    1
    40    23    41    1
    41    24    42    1
    42    24    43    1
    43    25    26    1
    44    25    27    1
    45    26    44    1
    46    26    45    1
    47    26    46    1
    48    27    28    2
    49    27    47    1
    50    28    48    1
@<TRIPOS>SUBSTRUCTURE
     1 ZINC001023407238        1 TEMP              0 ****  ****    0 ROOT


##########                                Name:    ZINC000673213454
##########                DOCK_Rotatable_Bonds:                   7
##########                         Heavy_Atoms:                  26
##########                    Molecular_Weight:             360.453
##########                DOCK_Rotatable_Bonds:                   7
##########                       Formal_Charge:          -0.0100001
##########                     HBond_Acceptors:                   6
##########                        HBond_Donors:                   1
##########                         Heavy_Atoms:                  26
##########                          Grid_Score:          -24.871630
##########                     Grid_vdw_energy:          -21.355175
##########                      Grid_es_energy:           -3.516455
##########           Internal_energy_repulsive:           13.811193

@<TRIPOS>MOLECULE
ZINC000673213454
 54 56 1 0 0
SMALL
USER_CHARGES


@<TRIPOS>ATOM
      1 C1        -10.9384    4.4268   61.1784 C.3     1  ZINC000673213454   -0.1700
      2 C2        -10.0116    3.2519   61.4974 C.3     1  ZINC000673213454    0.1400
      3 H3        -10.5965    2.3342   61.5595 H       1  ZINC000673213454    0.0900
      4 C4         -9.3123    3.5025   62.8349 C.3     1  ZINC000673213454   -0.1200
      5 C5         -8.4102    2.3129   63.1695 C.3     1  ZINC000673213454   -0.1300
      6 H6         -7.6204    2.2130   62.4252 H       1  ZINC000673213454    0.0800
      7 C7         -9.2417    1.0098   63.2557 C.3     1  ZINC000673213454   -0.1500
      8 C8         -8.6064    0.2996   64.4782 C.3     1  ZINC000673213454    0.0500
      9 O9         -8.3062    1.3861   65.3805 O.3     1  ZINC000673213454   -0.3800
     10 C10        -7.8065    2.4732   64.5783 C.3     1  ZINC000673213454    0.0500
     11 N11        -9.0077    3.1204   60.4386 N.am    1  ZINC000673213454   -0.6900
     12 C12        -9.2570    2.3426   59.3664 C.2     1  ZINC000673213454    0.5100
     13 O13       -10.3136    1.7524   59.2775 O.2     1  ZINC000673213454   -0.5100
     14 C14        -8.2322    2.2070   58.2871 C.2     1  ZINC000673213454    0.5000
     15 O15        -7.3344    1.3985   58.4009 O.2     1  ZINC000673213454   -0.5200
     16 N16        -8.3051    2.9826   57.1873 N.am    1  ZINC000673213454   -0.5800
     17 C17        -9.4079    3.9562   57.0773 C.3     1  ZINC000673213454    0.1100
     18 C18        -8.9080    5.2934   56.5112 C.3     1  ZINC000673213454   -0.1700
     19 C19        -7.5543    5.6229   57.1074 C.3     1  ZINC000673213454    0.0800
     20 O20        -6.5414    5.0970   56.2598 O.3     1  ZINC000673213454   -0.3800
     21 C21        -6.1190    3.7948   56.4348 C.3     1  ZINC000673213454    0.1500
     22 H22        -5.7728    3.6598   57.4596 H       1  ZINC000673213454    0.0600
     23 C23        -4.9904    3.5004   55.4805 C.ar    1  ZINC000673213454   -0.0800
     24 C24        -3.8400    2.8863   55.9389 C.ar    1  ZINC000673213454   -0.0900
     25 C25        -2.8048    2.6162   55.0635 C.ar    1  ZINC000673213454   -0.1300
     26 C26        -2.9201    2.9600   53.7297 C.ar    1  ZINC000673213454   -0.1200
     27 C27        -4.0709    3.5734   53.2710 C.ar    1  ZINC000673213454   -0.1300
     28 C28        -5.1079    3.8396   54.1456 C.ar    1  ZINC000673213454   -0.0900
     29 C29        -7.2925    2.8325   56.1587 C.3     1  ZINC000673213454    0.0700
     30 H30       -10.3535    5.3444   61.1163 H       1  ZINC000673213454    0.0600
     31 H31       -11.4366    4.2482   60.2255 H       1  ZINC000673213454    0.0600
     32 H32       -11.6853    4.5247   61.9662 H       1  ZINC000673213454    0.0700
     33 H33        -8.7091    4.4077   62.7655 H       1  ZINC000673213454    0.0800
     34 H34       -10.0599    3.6234   63.6189 H       1  ZINC000673213454    0.0900
     35 H35       -10.2934    1.2308   63.4374 H       1  ZINC000673213454    0.0800
     36 H36        -9.1217    0.4115   62.3526 H       1  ZINC000673213454    0.0800
     37 H37        -9.3165   -0.3915   64.9323 H       1  ZINC000673213454    0.0900
     38 H38        -7.6941   -0.2216   64.1880 H       1  ZINC000673213454    0.0600
     39 H39        -6.7188    2.4260   64.5262 H       1  ZINC000673213454    0.0600
     40 H40        -8.1179    3.4250   65.0086 H       1  ZINC000673213454    0.0900
     41 H41        -8.1636    3.5930   60.5090 H       1  ZINC000673213454    0.4100
     42 H42       -10.1764    3.5532   56.4178 H       1  ZINC000673213454    0.0800
     43 H43        -9.8371    4.1237   58.0651 H       1  ZINC000673213454    0.0900
     44 H44        -8.8189    5.2182   55.4275 H       1  ZINC000673213454    0.0800
     45 H45        -9.6172    6.0819   56.7631 H       1  ZINC000673213454    0.0900
     46 H46        -7.4421    6.7044   57.1835 H       1  ZINC000673213454    0.1000
     47 H47        -7.4719    5.1740   58.0973 H       1  ZINC000673213454    0.0500
     48 H48        -3.7499    2.6176   56.9811 H       1  ZINC000673213454    0.1300
     49 H49        -1.9057    2.1369   55.4219 H       1  ZINC000673213454    0.1200
     50 H50        -2.1111    2.7497   53.0458 H       1  ZINC000673213454    0.1200
     51 H51        -4.1610    3.8424   52.2289 H       1  ZINC000673213454    0.1200
     52 H52        -6.0070    4.3188   53.7872 H       1  ZINC000673213454    0.1300
     53 H53        -6.9275    1.8054   56.1588 H       1  ZINC000673213454    0.1200
     54 H54        -7.7296    3.0623   55.1870 H       1  ZINC000673213454    0.0800
@<TRIPOS>BOND
     1     1     2    1
     2     1    30    1
     3     1    31    1
     4     1    32    1
     5     2     3    1
     6     2     4    1
     7     2    11    1
     8     4     5    1
     9     4    33    1
    10     4    34    1
    11     5     6    1
    12     5    10    1
    13     5     7    1
    14     7     8    1
    15     7    35    1
    16     7    36    1
    17     8     9    1
    18     8    37    1
    19     8    38    1
    20     9    10    1
    21    10    39    1
    22    10    40    1
    23    11    12   am
    24    11    41    1
    25    12    13    2
    26    12    14    1
    27    14    15    2
    28    14    16   am
    29    16    29    1
    30    16    17    1
    31    17    18    1
    32    17    42    1
    33    17    43    1
    34    18    19    1
    35    18    44    1
    36    18    45    1
    37    19    20    1
    38    19    46    1
    39    19    47    1
    40    20    21    1
    41    21    22    1
    42    21    23    1
    43    21    29    1
    44    23    28   ar
    45    23    24   ar
    46    24    25   ar
    47    24    48    1
    48    25    26   ar
    49    25    49    1
    50    26    27   ar
    51    26    50    1
    52    27    28   ar
    53    27    51    1
    54    28    52    1
    55    29    53    1
    56    29    54    1
@<TRIPOS>SUBSTRUCTURE
     1 ZINC000673213454        1 TEMP              0 ****  ****    0 ROOT


##########                                Name:    ZINC000797321835
##########                DOCK_Rotatable_Bonds:                   4
##########                         Heavy_Atoms:                  22
##########                    Molecular_Weight:             381.253
##########                DOCK_Rotatable_Bonds:                   4
##########                       Formal_Charge:           0.0200001
##########                     HBond_Acceptors:                   7
##########                        HBond_Donors:                   1
##########                         Heavy_Atoms:                  22
##########                          Grid_Score:          -24.853142
##########                     Grid_vdw_energy:          -24.957241
##########                      Grid_es_energy:            0.104099
##########           Internal_energy_repulsive:            4.561398

@<TRIPOS>MOLECULE
ZINC000797321835
 35 37 1 0 0
SMALL
USER_CHARGES


@<TRIPOS>ATOM
      1 C1        -15.1344   -4.3277   54.7750 C.3     1  ZINC000797321835    0.1000
      2 N2        -15.4544   -3.8581   56.1252 N.am    1  ZINC000797321835   -0.6000
      3 C3        -15.6756   -4.6659   57.1767 C.2     1  ZINC000797321835    0.5200
      4 O4        -15.6451   -5.8777   57.1401 O.2     1  ZINC000797321835   -0.5200
      5 C5        -15.9675   -3.8433   58.4123 C.3     1  ZINC000797321835   -0.1500
      6 C6        -15.4810   -2.4221   58.0454 C.3     1  ZINC000797321835   -0.1200
      7 C7        -15.5687   -2.4451   56.5051 C.3     1  ZINC000797321835    0.1200
      8 H8        -16.5292   -2.0488   56.1760 H       1  ZINC000797321835    0.1100
      9 C9        -14.4419   -1.6431   55.9066 C.2     1  ZINC000797321835    0.4900
     10 O10       -14.6665   -0.5617   55.4056 O.2     1  ZINC000797321835   -0.4400
     11 N11       -13.1844   -2.1278   55.9280 N.am    1  ZINC000797321835   -0.6500
     12 C12       -12.1415   -1.3856   55.3741 C.ar    1  ZINC000797321835    0.3000
     13 C13       -11.5505   -1.7967   54.1788 C.ar    1  ZINC000797321835   -0.1400
     14 C14       -10.5200   -1.0302   53.6657 C.ar    1  ZINC000797321835   -0.0800
     15 C15       -10.1337    0.1123   54.3790 C.ar    1  ZINC000797321835    0.1100
     16 C16        -9.0392    0.9660   53.8750 C.2     1  ZINC000797321835   -0.1400
     17 C17        -8.1506    1.6276   54.6440 C.2     1  ZINC000797321835   -0.0900
     18 C18        -7.2173    2.3628   53.9441 C.2     1  ZINC000797321835   -0.0900
     19 C19        -7.3356    2.3077   52.6128 C.2     1  ZINC000797321835   -0.2000
     20 Br20       -6.2124    3.2030   51.3828 Br      1  ZINC000797321835    0.0200
     21 S21        -8.6884    1.2713   52.1788 S.3     1  ZINC000797321835    0.1900
     22 N22       -10.7564    0.4247   55.5104 N.ar    1  ZINC000797321835   -0.1900
     23 N23       -11.7156   -0.2875   55.9796 N.ar    1  ZINC000797321835   -0.2200
     24 H24       -14.0537   -4.4254   54.6709 H       1  ZINC000797321835    0.0700
     25 H25       -15.6046   -5.2965   54.6063 H       1  ZINC000797321835    0.0800
     26 H26       -15.5067   -3.6108   54.0431 H       1  ZINC000797321835    0.0700
     27 H27       -17.0369   -3.8379   58.6231 H       1  ZINC000797321835    0.1100
     28 H28       -15.4113   -4.2282   59.2670 H       1  ZINC000797321835    0.1100
     29 H29       -16.1414   -1.6633   58.4651 H       1  ZINC000797321835    0.1100
     30 H30       -14.4527   -2.2656   58.3714 H       1  ZINC000797321835    0.0900
     31 H31       -13.0047   -2.9927   56.3288 H       1  ZINC000797321835    0.4200
     32 H32       -11.8876   -2.6874   53.6695 H       1  ZINC000797321835    0.1600
     33 H33       -10.0282   -1.3039   52.7440 H       1  ZINC000797321835    0.1500
     34 H34        -8.1688    1.5851   55.7230 H       1  ZINC000797321835    0.1600
     35 H35        -6.4480    2.9407   54.4346 H       1  ZINC000797321835    0.1600
@<TRIPOS>BOND
     1     1     2    1
     2     1    24    1
     3     1    25    1
     4     1    26    1
     5     2     7    1
     6     2     3   am
     7     3     4    2
     8     3     5    1
     9     5     6    1
    10     5    27    1
    11     5    28    1
    12     6     7    1
    13     6    29    1
    14     6    30    1
    15     7     8    1
    16     7     9    1
    17     9    10    2
    18     9    11   am
    19    11    12    1
    20    11    31    1
    21    12    23   ar
    22    12    13   ar
    23    13    14   ar
    24    13    32    1
    25    14    15   ar
    26    14    33    1
    27    15    16    1
    28    15    22   ar
    29    16    21    1
    30    16    17    2
    31    17    18    1
    32    17    34    1
    33    18    19    2
    34    18    35    1
    35    19    20    1
    36    19    21    1
    37    22    23   ar
@<TRIPOS>SUBSTRUCTURE
     1 ZINC000797321835        1 TEMP              0 ****  ****    0 ROOT


##########                                Name:    ZINC000057429281
##########                DOCK_Rotatable_Bonds:                  10
##########                         Heavy_Atoms:                  23
##########                    Molecular_Weight:             331.295
##########                DOCK_Rotatable_Bonds:                  10
##########                       Formal_Charge:          -0.0100002
##########                     HBond_Acceptors:                   9
##########                        HBond_Donors:                   5
##########                         Heavy_Atoms:                  23
##########                          Grid_Score:          -24.848862
##########                     Grid_vdw_energy:          -24.557955
##########                      Grid_es_energy:           -0.290906
##########           Internal_energy_repulsive:           10.884753

@<TRIPOS>MOLECULE
ZINC000057429281
 39 39 1 0 0
SMALL
USER_CHARGES


@<TRIPOS>ATOM
      1 C1        -11.5251   -1.5604   54.7192 C.3     1  ZINC000057429281   -0.1500
      2 C2        -12.1538   -1.8495   56.0837 C.3     1  ZINC000057429281   -0.0400
      3 H3        -12.2944   -2.9243   56.1986 H       1  ZINC000057429281    0.0900
      4 C4        -13.5082   -1.1446   56.1809 C.3     1  ZINC000057429281   -0.1300
      5 C5        -14.6050   -2.1743   56.2709 C.2     1  ZINC000057429281    0.5200
      6 O6        -15.4901   -2.0474   57.0903 O.2     1  ZINC000057429281   -0.5300
      7 N7        -14.6023   -3.2361   55.4409 N.am    1  ZINC000057429281   -0.7000
      8 C8        -15.6676   -4.2379   55.5296 C.3     1  ZINC000057429281    0.1100
      9 C9        -15.6786   -5.0719   54.2743 C.2     1  ZINC000057429281    0.5200
     10 N10       -16.8499   -5.4742   53.7429 N.am    1  ZINC000057429281   -0.8500
     11 O11       -14.6334   -5.3810   53.7425 O.2     1  ZINC000057429281   -0.5100
     12 C12       -15.4229   -5.1272   56.7214 C.2     1  ZINC000057429281    0.5300
     13 N13       -16.1642   -4.9779   57.8370 N.am    1  ZINC000057429281   -0.8400
     14 O14       -14.5590   -5.9771   56.6766 O.2     1  ZINC000057429281   -0.5100
     15 C15       -11.2444   -1.3427   57.1733 C.ar    1  ZINC000057429281   -0.0500
     16 C16       -11.0627    0.0168   57.3452 C.ar    1  ZINC000057429281   -0.1200
     17 C17       -10.2286    0.4818   58.3447 C.ar    1  ZINC000057429281   -0.0700
     18 C18        -9.5766   -0.4129   59.1726 C.ar    1  ZINC000057429281   -0.1900
     19 C19        -8.6669    0.0939   60.2620 C.3     1  ZINC000057429281    0.5100
     20 F20        -9.3725    0.1538   61.4686 F       1  ZINC000057429281   -0.1800
     21 F21        -7.5779   -0.7731   60.4011 F       1  ZINC000057429281   -0.1800
     22 F22        -8.2058    1.3718   59.9275 F       1  ZINC000057429281   -0.1800
     23 C23        -9.7594   -1.7723   59.0016 C.ar    1  ZINC000057429281   -0.0700
     24 C24       -10.5965   -2.2372   58.0046 C.ar    1  ZINC000057429281   -0.1100
     25 H25       -10.5601   -2.0625   54.6500 H       1  ZINC000057429281    0.0600
     26 H26       -12.1828   -1.9270   53.9311 H       1  ZINC000057429281    0.0800
     27 H27       -11.3844   -0.4856   54.6044 H       1  ZINC000057429281    0.0500
     28 H28       -13.5272   -0.5149   57.0703 H       1  ZINC000057429281    0.1000
     29 H29       -13.6610   -0.5276   55.2955 H       1  ZINC000057429281    0.1000
     30 H30       -13.8951   -3.3370   54.7847 H       1  ZINC000057429281    0.4200
     31 H31       -16.6291   -3.7369   55.6413 H       1  ZINC000057429281    0.1300
     32 H32       -16.8571   -6.0110   52.9350 H       1  ZINC000057429281    0.4000
     33 H33       -17.6858   -5.2271   54.1685 H       1  ZINC000057429281    0.4100
     34 H34       -16.0068   -5.5502   58.6042 H       1  ZINC000057429281    0.4000
     35 H35       -16.8553   -4.2981   57.8727 H       1  ZINC000057429281    0.4100
     36 H36       -11.5722    0.7158   56.6984 H       1  ZINC000057429281    0.1400
     37 H37       -10.0861    1.5439   58.4786 H       1  ZINC000057429281    0.1400
     38 H38        -9.2502   -2.4713   59.6487 H       1  ZINC000057429281    0.1400
     39 H39       -10.7393   -3.2993   57.8710 H       1  ZINC000057429281    0.1400
@<TRIPOS>BOND
     1     1     2    1
     2     1    25    1
     3     1    26    1
     4     1    27    1
     5     2     3    1
     6     2     4    1
     7     2    15    1
     8     4     5    1
     9     4    28    1
    10     4    29    1
    11     5     6    2
    12     5     7   am
    13     7     8    1
    14     7    30    1
    15     8     9    1
    16     8    12    1
    17     8    31    1
    18     9    10   am
    19     9    11    2
    20    10    32    1
    21    10    33    1
    22    12    13   am
    23    12    14    2
    24    13    34    1
    25    13    35    1
    26    15    24   ar
    27    15    16   ar
    28    16    17   ar
    29    16    36    1
    30    17    18   ar
    31    17    37    1
    32    18    19    1
    33    18    23   ar
    34    19    20    1
    35    19    21    1
    36    19    22    1
    37    23    24   ar
    38    23    38    1
    39    24    39    1
@<TRIPOS>SUBSTRUCTURE
     1 ZINC000057429281        1 TEMP              0 ****  ****    0 ROOT


##########                                Name:    ZINC000817655807
##########                DOCK_Rotatable_Bonds:                   3
##########                         Heavy_Atoms:                  24
##########                    Molecular_Weight:             352.774
##########                DOCK_Rotatable_Bonds:                   3
##########                       Formal_Charge:         3.35276e-07
##########                     HBond_Acceptors:                   8
##########                        HBond_Donors:                   0
##########                         Heavy_Atoms:                  24
##########                          Grid_Score:          -24.792265
##########                     Grid_vdw_energy:          -24.450253
##########                      Grid_es_energy:           -0.342012
##########           Internal_energy_repulsive:          144.211426

@<TRIPOS>MOLECULE
ZINC000817655807
 41 44 1 0 0
SMALL
USER_CHARGES


@<TRIPOS>ATOM
      1 C1        -14.1127   -1.8470   55.5808 C.3     1  ZINC000817655807    0.1100
      2 N2        -13.5990   -2.0527   56.9373 N.am    1  ZINC000817655807   -0.6400
      3 C3        -12.2021   -1.8557   57.3644 C.3     1  ZINC000817655807    0.1000
      4 C4        -12.2368   -2.2075   58.8544 C.3     1  ZINC000817655807    0.0500
      5 C5        -11.1731   -3.1978   59.3287 C.3     1  ZINC000817655807    0.1200
      6 N6        -10.3776   -2.0045   59.6855 N.am    1  ZINC000817655807   -0.6500
      7 C7         -9.0616   -1.7622   59.8467 C.2     1  ZINC000817655807    0.5500
      8 O8         -8.2565   -2.6549   59.6860 O.2     1  ZINC000817655807   -0.5100
      9 C9         -8.5906   -0.3820   60.2266 C.3     1  ZINC000817655807   -0.0900
     10 C10        -9.3321    0.0818   61.4539 C.ar    1  ZINC000817655807   -0.0600
     11 C11        -8.7256    0.0117   62.6938 C.ar    1  ZINC000817655807   -0.0900
     12 C12        -9.4041    0.4345   63.8228 C.ar    1  ZINC000817655807   -0.0300
     13 Cl13       -8.6395    0.3446   65.3787 Cl      1  ZINC000817655807   -0.0500
     14 C14       -10.6952    0.9307   63.7123 C.ar    1  ZINC000817655807    0.0600
     15 O15       -11.3536    1.3357   64.8329 O.3     1  ZINC000817655807   -0.2900
     16 C16       -12.5008    2.1702   64.6390 C.3     1  ZINC000817655807    0.0200
     17 C17       -13.3586    1.5567   63.5240 C.3     1  ZINC000817655807    0.0200
     18 O18       -12.5665    1.4923   62.3330 O.3     1  ZINC000817655807   -0.3000
     19 C19       -11.3027    1.0043   62.4646 C.ar    1  ZINC000817655807    0.0600
     20 C20       -10.6154    0.5818   61.3365 C.ar    1  ZINC000817655807   -0.0900
     21 C21       -11.6011   -1.1829   59.7943 C.3     1  ZINC000817655807    0.1100
     22 O22       -13.6122   -2.5623   59.1266 O.3     1  ZINC000817655807   -0.3000
     23 C23       -14.3242   -2.4457   57.9956 C.2     1  ZINC000817655807    0.6400
     24 O24       -15.5146   -2.6817   57.9335 O.2     1  ZINC000817655807   -0.5100
     25 H25       -15.1809   -2.0632   55.5601 H       1  ZINC000817655807    0.0900
     26 H26       -13.9457   -0.8120   55.2821 H       1  ZINC000817655807    0.0700
     27 H27       -13.5938   -2.5125   54.8909 H       1  ZINC000817655807    0.0700
     28 H28       -11.5365   -2.5300   56.8254 H       1  ZINC000817655807    0.1000
     29 H29       -11.8989   -0.8186   57.2212 H       1  ZINC000817655807    0.1000
     30 H30       -11.4796   -3.7954   60.1873 H       1  ZINC000817655807    0.1100
     31 H31       -10.7375   -3.7937   58.5267 H       1  ZINC000817655807    0.1000
     32 H32        -7.5213   -0.4079   60.4362 H       1  ZINC000817655807    0.1100
     33 H33        -8.7830    0.3067   59.4039 H       1  ZINC000817655807    0.1100
     34 H34        -7.7207   -0.3739   62.7815 H       1  ZINC000817655807    0.1400
     35 H35       -13.0787    2.2207   65.5617 H       1  ZINC000817655807    0.1300
     36 H36       -12.1823    3.1714   64.3488 H       1  ZINC000817655807    0.0800
     37 H37       -13.6722    0.5531   63.8115 H       1  ZINC000817655807    0.0800
     38 H38       -14.2352    2.1805   63.3491 H       1  ZINC000817655807    0.1300
     39 H39       -11.0849    0.6400   60.3657 H       1  ZINC000817655807    0.1400
     40 H40       -11.5035   -0.1880   59.3598 H       1  ZINC000817655807    0.1000
     41 H41       -12.0368   -1.1721   60.7934 H       1  ZINC000817655807    0.1100
@<TRIPOS>BOND
     1     1     2    1
     2     1    25    1
     3     1    26    1
     4     1    27    1
     5     2    23   am
     6     2     3    1
     7     3     4    1
     8     3    28    1
     9     3    29    1
    10     4    21    1
    11     4     5    1
    12     4    22    1
    13     5     6    1
    14     5    30    1
    15     5    31    1
    16     6     7   am
    17     6    21    1
    18     7     8    2
    19     7     9    1
    20     9    10    1
    21     9    32    1
    22     9    33    1
    23    10    20   ar
    24    10    11   ar
    25    11    12   ar
    26    11    34    1
    27    12    13    1
    28    12    14   ar
    29    14    19   ar
    30    14    15    1
    31    15    16    1
    32    16    17    1
    33    16    35    1
    34    16    36    1
    35    17    18    1
    36    17    37    1
    37    17    38    1
    38    18    19    1
    39    19    20   ar
    40    20    39    1
    41    21    40    1
    42    21    41    1
    43    22    23    1
    44    23    24    2
@<TRIPOS>SUBSTRUCTURE
     1 ZINC000817655807        1 TEMP              0 ****  ****    0 ROOT


##########                                Name:    ZINC001076281847
##########                DOCK_Rotatable_Bonds:                   4
##########                         Heavy_Atoms:                  24
##########                    Molecular_Weight:             362.883
##########                DOCK_Rotatable_Bonds:                   4
##########                       Formal_Charge:         -0.00999959
##########                     HBond_Acceptors:                   7
##########                        HBond_Donors:                   0
##########                         Heavy_Atoms:                  24
##########                          Grid_Score:          -24.776669
##########                     Grid_vdw_energy:          -25.244312
##########                      Grid_es_energy:            0.467644
##########           Internal_energy_repulsive:           10.531680

@<TRIPOS>MOLECULE
ZINC001076281847
 43 46 1 0 0
SMALL
USER_CHARGES


@<TRIPOS>ATOM
      1 C1         -3.6654    5.1456   53.5183 C.3     1  ZINC001076281847   -0.0900
      2 C2         -3.6388    4.0314   52.5038 C.2     1  ZINC001076281847    0.1400
      3 N3         -4.7257    3.4168   52.1390 N.2     1  ZINC001076281847   -0.4600
      4 S4         -4.2784    2.2451   50.9973 S.3     1  ZINC001076281847    0.2500
      5 C5         -2.5971    2.6084   51.0290 C.2     1  ZINC001076281847   -0.2100
      6 C6         -1.5048    1.9428   50.2320 C.3     1  ZINC001076281847    0.1200
      7 N7         -0.8094    2.9493   49.4187 N.3     1  ZINC001076281847   -0.5000
      8 C8         -0.5806    2.4561   48.0516 C.3     1  ZINC001076281847    0.0300
      9 C9          0.8200    2.9411   47.6321 C.3     1  ZINC001076281847   -0.1000
     10 H10         0.8029    3.8613   47.0481 H       1  ZINC001076281847    0.1200
     11 C11         1.5457    1.7703   46.9184 C.3     1  ZINC001076281847   -0.1300
     12 C12         1.8943    0.8426   48.1083 C.3     1  ZINC001076281847    0.1000
     13 N13         2.2426    1.7576   49.2102 N.am    1  ZINC001076281847   -0.6000
     14 C14         3.0341    1.4572   50.2588 C.2     1  ZINC001076281847    0.5700
     15 O15         3.2542    2.2930   51.1130 O.2     1  ZINC001076281847   -0.4900
     16 C16         3.6353    0.1086   50.3702 C.ar    1  ZINC001076281847   -0.0800
     17 C17         2.8423   -1.0405   50.2939 C.ar    1  ZINC001076281847   -0.1800
     18 C18         3.4447   -2.2788   50.4022 C.ar    1  ZINC001076281847    0.1000
     19 N19         4.7470   -2.3861   50.5751 N.ar    1  ZINC001076281847   -0.4500
     20 C20         5.5319   -1.3303   50.6527 C.ar    1  ZINC001076281847    0.1100
     21 C21         5.0142   -0.0519   50.5490 C.ar    1  ZINC001076281847   -0.0500
     22 Cl22        6.0568    1.3324   50.6518 Cl      1  ZINC001076281847   -0.0100
     23 C23         1.5793    3.0721   48.9799 C.3     1  ZINC001076281847    0.1000
     24 H24         2.3059    3.8846   48.9624 H       1  ZINC001076281847    0.1100
     25 C25         0.4801    3.3159   50.0231 C.3     1  ZINC001076281847    0.0200
     26 C26        -2.4628    3.6198   51.9151 C.2     1  ZINC001076281847   -0.1800
     27 H27        -3.7277    6.1042   53.0034 H       1  ZINC001076281847    0.0700
     28 H28        -4.5322    5.0249   54.1679 H       1  ZINC001076281847    0.0800
     29 H29        -2.7552    5.1134   54.1173 H       1  ZINC001076281847    0.0900
     30 H30        -0.7951    1.4712   50.9116 H       1  ZINC001076281847    0.1000
     31 H31        -1.9407    1.1864   49.5795 H       1  ZINC001076281847    0.1000
     32 H32        -0.6177    1.3668   48.0373 H       1  ZINC001076281847    0.0600
     33 H33        -1.3337    2.8639   47.3774 H       1  ZINC001076281847    0.0900
     34 H34         0.8802    1.2696   46.2153 H       1  ZINC001076281847    0.0900
     35 H35         2.4491    2.1187   46.4177 H       1  ZINC001076281847    0.0800
     36 H36         1.0322    0.2331   48.3793 H       1  ZINC001076281847    0.0800
     37 H37         2.7449    0.2085   47.8584 H       1  ZINC001076281847    0.0800
     38 H38         1.7744   -0.9610   50.1526 H       1  ZINC001076281847    0.1800
     39 H39         2.8399   -3.1718   50.3448 H       1  ZINC001076281847    0.1700
     40 H40         6.5939   -1.4652   50.7948 H       1  ZINC001076281847    0.1700
     41 H41         0.4804    4.3644   50.3209 H       1  ZINC001076281847    0.1000
     42 H42         0.6532    2.6852   50.8952 H       1  ZINC001076281847    0.0700
     43 H43        -1.5074    4.0661   52.1488 H       1  ZINC001076281847    0.1400
@<TRIPOS>BOND
     1     1     2    1
     2     1    27    1
     3     1    28    1
     4     1    29    1
     5     2    26    1
     6     2     3    2
     7     3     4    1
     8     4     5    1
     9     5     6    1
    10     5    26    2
    11     6     7    1
    12     6    30    1
    13     6    31    1
    14     7    25    1
    15     7     8    1
    16     8     9    1
    17     8    32    1
    18     8    33    1
    19     9    10    1
    20     9    23    1
    21     9    11    1
    22    11    12    1
    23    11    34    1
    24    11    35    1
    25    12    13    1
    26    12    36    1
    27    12    37    1
    28    13    14   am
    29    13    23    1
    30    14    15    2
    31    14    16    1
    32    16    21   ar
    33    16    17   ar
    34    17    18   ar
    35    17    38    1
    36    18    19   ar
    37    18    39    1
    38    19    20   ar
    39    20    21   ar
    40    20    40    1
    41    21    22    1
    42    23    24    1
    43    23    25    1
    44    25    41    1
    45    25    42    1
    46    26    43    1
@<TRIPOS>SUBSTRUCTURE
     1 ZINC001076281847        1 TEMP              0 ****  ****    0 ROOT


##########                                Name:    ZINC001053433946
##########                DOCK_Rotatable_Bonds:                   6
##########                         Heavy_Atoms:                  24
##########                    Molecular_Weight:             337.419
##########                DOCK_Rotatable_Bonds:                   6
##########                       Formal_Charge:               -0.02
##########                     HBond_Acceptors:                   7
##########                        HBond_Donors:                   2
##########                         Heavy_Atoms:                  24
##########                          Grid_Score:          -24.762363
##########                     Grid_vdw_energy:          -23.575544
##########                      Grid_es_energy:           -1.186819
##########           Internal_energy_repulsive:           16.754246

@<TRIPOS>MOLECULE
ZINC001053433946
 51 54 1 0 0
SMALL
USER_CHARGES


@<TRIPOS>ATOM
      1 N1         -7.7230   -0.6237   60.6860 N.am    1  ZINC001053433946   -0.8300
      2 C2         -8.4977    0.1514   59.9014 C.2     1  ZINC001053433946    0.5600
      3 O3         -8.4635    0.0203   58.6962 O.2     1  ZINC001053433946   -0.5500
      4 C4         -9.4065    1.1811   60.5218 C.3     1  ZINC001053433946   -0.1600
      5 H5         -9.2960    2.1963   60.1407 H       1  ZINC001053433946    0.1400
      6 C6         -9.7539    1.0164   62.0027 C.3     1  ZINC001053433946   -0.1300
      7 C7        -10.8096    0.7295   60.9320 C.3     1  ZINC001053433946   -0.1700
      8 H8        -11.6221    1.4476   60.8213 H       1  ZINC001053433946    0.1400
      9 C9        -11.1774   -0.7110   60.6858 C.2     1  ZINC001053433946    0.5400
     10 O10       -10.6810   -1.5876   61.3611 O.2     1  ZINC001053433946   -0.5200
     11 N11       -12.0579   -1.0252   59.7149 N.am    1  ZINC001053433946   -0.6100
     12 C12       -12.4335   -2.4237   59.4545 C.3     1  ZINC001053433946    0.0700
     13 C13       -12.2387   -2.7157   57.9630 C.3     1  ZINC001053433946    0.0500
     14 O14       -12.9612   -1.7500   57.1926 O.3     1  ZINC001053433946   -0.3400
     15 C15       -12.5494   -0.4045   57.4175 C.3     1  ZINC001053433946    0.0800
     16 C16       -11.1893   -0.0618   56.7950 C.3     1  ZINC001053433946   -0.0100
     17 N17       -11.9571    0.3585   55.6010 N.3     1  ZINC001053433946   -0.4700
     18 C18       -11.4320    1.6164   55.0533 C.3     1  ZINC001053433946    0.0200
     19 C19       -10.8345    1.3596   53.6684 C.3     1  ZINC001053433946   -0.1200
     20 H20       -10.5503    2.3081   53.2128 H       1  ZINC001053433946    0.0800
     21 C21        -9.5981    0.4652   53.8022 C.3     1  ZINC001053433946   -0.1200
     22 C22        -9.0549    0.1515   52.4048 C.3     1  ZINC001053433946   -0.1600
     23 C23       -10.1592   -0.5046   51.5720 C.3     1  ZINC001053433946    0.0600
     24 O24       -11.2908    0.3663   51.5131 O.3     1  ZINC001053433946   -0.3800
     25 C25       -11.8706    0.6583   52.7862 C.3     1  ZINC001053433946    0.0700
     26 C26       -13.1579    0.6021   56.4321 C.3     1  ZINC001053433946    0.0200
     27 C27       -12.6795    0.0214   58.8848 C.3     1  ZINC001053433946    0.1000
     28 H28        -7.1372   -1.2857   60.2865 H       1  ZINC001053433946    0.4000
     29 H29        -7.7483   -0.5169   61.6497 H       1  ZINC001053433946    0.4000
     30 H30        -9.3250    0.1632   62.5283 H       1  ZINC001053433946    0.1100
     31 H31        -9.8722    1.9232   62.5957 H       1  ZINC001053433946    0.1200
     32 H32       -11.8003   -3.0879   60.0428 H       1  ZINC001053433946    0.1000
     33 H33       -13.4784   -2.5777   59.7239 H       1  ZINC001053433946    0.0800
     34 H34       -11.1786   -2.6583   57.7165 H       1  ZINC001053433946    0.0600
     35 H35       -12.6117   -3.7146   57.7363 H       1  ZINC001053433946    0.1100
     36 H36       -10.6709    0.7565   57.2947 H       1  ZINC001053433946    0.0800
     37 H37       -10.5525   -0.9300   56.6249 H       1  ZINC001053433946    0.0900
     38 H38       -12.2408    2.3426   54.9711 H       1  ZINC001053433946    0.0500
     39 H39       -10.6594    2.0065   55.7158 H       1  ZINC001053433946    0.0800
     40 H40        -8.8345    0.9832   54.3825 H       1  ZINC001053433946    0.0700
     41 H41        -9.8721   -0.4630   54.3038 H       1  ZINC001053433946    0.0700
     42 H42        -8.7349    1.0752   51.9225 H       1  ZINC001053433946    0.0700
     43 H43        -8.2078   -0.5295   52.4877 H       1  ZINC001053433946    0.0700
     44 H44        -9.7913   -0.6912   50.5630 H       1  ZINC001053433946    0.0900
     45 H45       -10.4504   -1.4483   52.0332 H       1  ZINC001053433946    0.0500
     46 H46       -12.1844   -0.2697   53.2642 H       1  ZINC001053433946    0.0500
     47 H47       -12.7351    1.3083   52.6514 H       1  ZINC001053433946    0.1000
     48 H48       -14.0863    0.2619   55.9735 H       1  ZINC001053433946    0.1000
     49 H49       -13.2225    1.6170   56.8244 H       1  ZINC001053433946    0.0900
     50 H50       -13.7325    0.1295   59.1450 H       1  ZINC001053433946    0.0800
     51 H51       -12.1620    0.9680   59.0408 H       1  ZINC001053433946    0.1000
@<TRIPOS>BOND
     1     1     2   am
     2     1    28    1
     3     1    29    1
     4     2     3    2
     5     2     4    1
     6     4     5    1
     7     4     7    1
     8     4     6    1
     9     6     7    1
    10     6    30    1
    11     6    31    1
    12     7     8    1
    13     7     9    1
    14     9    10    2
    15     9    11   am
    16    11    27    1
    17    11    12    1
    18    12    13    1
    19    12    32    1
    20    12    33    1
    21    13    14    1
    22    13    34    1
    23    13    35    1
    24    14    15    1
    25    15    26    1
    26    15    16    1
    27    15    27    1
    28    16    17    1
    29    16    36    1
    30    16    37    1
    31    17    18    1
    32    17    26    1
    33    18    19    1
    34    18    38    1
    35    18    39    1
    36    19    20    1
    37    19    25    1
    38    19    21    1
    39    21    22    1
    40    21    40    1
    41    21    41    1
    42    22    23    1
    43    22    42    1
    44    22    43    1
    45    23    24    1
    46    23    44    1
    47    23    45    1
    48    24    25    1
    49    25    46    1
    50    25    47    1
    51    26    48    1
    52    26    49    1
    53    27    50    1
    54    27    51    1
@<TRIPOS>SUBSTRUCTURE
     1 ZINC001053433946        1 TEMP              0 ****  ****    0 ROOT


##########                                Name:    ZINC000330515179
##########                DOCK_Rotatable_Bonds:                   4
##########                         Heavy_Atoms:                  21
##########                    Molecular_Weight:             378.287
##########                DOCK_Rotatable_Bonds:                   4
##########                       Formal_Charge:           0.0200002
##########                     HBond_Acceptors:                   6
##########                        HBond_Donors:                   0
##########                         Heavy_Atoms:                  21
##########                          Grid_Score:          -24.758799
##########                     Grid_vdw_energy:          -24.344385
##########                      Grid_es_energy:           -0.414413
##########           Internal_energy_repulsive:            6.882595

@<TRIPOS>MOLECULE
ZINC000330515179
 41 42 1 0 0
SMALL
USER_CHARGES


@<TRIPOS>ATOM
      1 C1        -16.1778   -3.7774   58.7073 C.3     1  ZINC000330515179    0.0300
      2 O2        -15.3263   -4.5527   57.8611 O.3     1  ZINC000330515179   -0.3800
      3 C3        -14.9611   -3.8961   56.6456 C.3     1  ZINC000330515179    0.0700
      4 C4        -13.9493   -2.7890   56.9481 C.3     1  ZINC000330515179    0.0800
      5 H5        -14.4212   -2.0226   57.5632 H       1  ZINC000330515179    0.0800
      6 C6        -13.4653   -2.1646   55.6343 C.3     1  ZINC000330515179    0.0900
      7 N7        -12.3625   -1.2391   55.9388 N.am    1  ZINC000330515179   -1.0000
      8 S8        -12.3679    0.3128   55.3609 S.o2    1  ZINC000330515179    2.6900
      9 O9        -13.4822    0.4107   54.4846 O.2     1  ZINC000330515179   -0.9400
     10 O10       -12.1877    1.1608   56.4867 O.2     1  ZINC000330515179   -0.9500
     11 C11       -10.9300    0.5017   54.3604 C.ar    1  ZINC000330515179   -0.6700
     12 C12        -9.8014    1.1080   54.8799 C.ar    1  ZINC000330515179   -0.0100
     13 C13        -8.6730    1.2560   54.0955 C.ar    1  ZINC000330515179   -0.1100
     14 C14        -8.6731    0.7974   52.7905 C.ar    1  ZINC000330515179   -0.0400
     15 Br15       -7.1294    0.9990   51.7171 Br      1  ZINC000330515179   -0.0300
     16 C16        -9.8025    0.1908   52.2711 C.ar    1  ZINC000330515179   -0.1100
     17 C17       -10.9287    0.0384   53.0579 C.ar    1  ZINC000330515179   -0.0100
     18 C18       -11.2547   -1.7336   56.7716 C.3     1  ZINC000330515179    0.1000
     19 C19       -11.8463   -2.3788   58.0300 C.3     1  ZINC000330515179    0.1000
     20 C20       -10.7344   -3.0719   58.8200 C.3     1  ZINC000330515179   -0.1400
     21 C21       -12.4957   -1.3007   58.9000 C.3     1  ZINC000330515179   -0.1800
     22 O22       -12.8317   -3.3415   57.6476 O.3     1  ZINC000330515179   -0.3500
     23 H23       -16.4091   -4.3454   59.6085 H       1  ZINC000330515179    0.0900
     24 H24       -15.6722   -2.8514   58.9813 H       1  ZINC000330515179    0.0400
     25 H25       -17.1014   -3.5441   58.1777 H       1  ZINC000330515179    0.0400
     26 H26       -14.5153   -4.6186   55.9620 H       1  ZINC000330515179    0.0600
     27 H27       -15.8489   -3.4614   56.1865 H       1  ZINC000330515179    0.0700
     28 H28       -13.1126   -2.9481   54.9637 H       1  ZINC000330515179    0.0900
     29 H29       -14.2833   -1.6189   55.1639 H       1  ZINC000330515179    0.1000
     30 H30        -9.8016    1.4664   55.8988 H       1  ZINC000330515179    0.1500
     31 H31        -7.7915    1.7300   54.5014 H       1  ZINC000330515179    0.1500
     32 H32        -9.8030   -0.1675   51.2523 H       1  ZINC000330515179    0.1500
     33 H33       -11.8105   -0.4351   52.6525 H       1  ZINC000330515179    0.1500
     34 H34       -10.6793   -2.4736   56.2154 H       1  ZINC000330515179    0.0900
     35 H35       -10.6087   -0.9024   57.0544 H       1  ZINC000330515179    0.1000
     36 H36        -9.9818   -2.3381   59.1081 H       1  ZINC000330515179    0.0800
     37 H37       -11.1559   -3.5305   59.7145 H       1  ZINC000330515179    0.0700
     38 H38       -10.2735   -3.8410   58.2001 H       1  ZINC000330515179    0.0700
     39 H39       -13.2890   -0.8087   58.3372 H       1  ZINC000330515179    0.0600
     40 H40       -12.9162   -1.7603   59.7945 H       1  ZINC000330515179    0.0700
     41 H41       -11.7446   -0.5653   59.1882 H       1  ZINC000330515179    0.0700
@<TRIPOS>BOND
     1     1     2    1
     2     1    23    1
     3     1    24    1
     4     1    25    1
     5     2     3    1
     6     3     4    1
     7     3    26    1
     8     3    27    1
     9     4     5    1
    10     4    22    1
    11     4     6    1
    12     6     7    1
    13     6    28    1
    14     6    29    1
    15     7     8   am
    16     7    18    1
    17     8     9    2
    18     8    10    2
    19     8    11    1
    20    11    17   ar
    21    11    12   ar
    22    12    13   ar
    23    12    30    1
    24    13    14   ar
    25    13    31    1
    26    14    15    1
    27    14    16   ar
    28    16    17   ar
    29    16    32    1
    30    17    33    1
    31    18    19    1
    32    18    34    1
    33    18    35    1
    34    19    20    1
    35    19    21    1
    36    19    22    1
    37    20    36    1
    38    20    37    1
    39    20    38    1
    40    21    39    1
    41    21    40    1
    42    21    41    1
@<TRIPOS>SUBSTRUCTURE
     1 ZINC000330515179        1 TEMP              0 ****  ****    0 ROOT


##########                                Name:    ZINC000929592477
##########                DOCK_Rotatable_Bonds:                   7
##########                         Heavy_Atoms:                  28
##########                    Molecular_Weight:             399.517
##########                DOCK_Rotatable_Bonds:                   7
##########                       Formal_Charge:         -8.9407e-08
##########                     HBond_Acceptors:                   8
##########                        HBond_Donors:                   3
##########                         Heavy_Atoms:                  28
##########                          Grid_Score:          -24.727797
##########                     Grid_vdw_energy:          -24.484293
##########                      Grid_es_energy:           -0.243504
##########           Internal_energy_repulsive:            6.298627

@<TRIPOS>MOLECULE
ZINC000929592477
 53 56 1 0 0
SMALL
USER_CHARGES


@<TRIPOS>ATOM
      1 O1         -5.2400    3.1311   50.5742 O.2     1  ZINC000929592477   -0.5700
      2 C2         -5.1916    2.7021   51.7110 C.2     1  ZINC000929592477    0.7100
      3 N3         -4.0020    2.5664   52.3298 N.am    1  ZINC000929592477   -0.6800
      4 C4         -2.8201    2.9143   51.6610 C.ar    1  ZINC000929592477    0.1600
      5 C5         -2.2140    4.1377   51.9137 C.ar    1  ZINC000929592477   -0.1300
      6 C6         -1.0503    4.4810   51.2550 C.ar    1  ZINC000929592477   -0.0800
      7 C7         -0.4854    3.6018   50.3394 C.ar    1  ZINC000929592477   -0.1000
      8 S8          1.0001    4.0390   49.4988 S.3     1  ZINC000929592477   -0.1100
      9 C9          0.8026    3.2437   47.8805 C.3     1  ZINC000929592477   -0.0800
     10 C10         1.2930    4.1834   46.7511 C.3     1  ZINC000929592477   -0.1200
     11 C11         1.6269    3.1959   45.6056 C.3     1  ZINC000929592477   -0.1200
     12 C12         2.2445    1.9783   46.3237 C.3     1  ZINC000929592477   -0.1200
     13 C13         1.7204    2.0086   47.7702 C.3     1  ZINC000929592477   -0.1000
     14 C14        -1.0919    2.3775   50.0872 C.ar    1  ZINC000929592477   -0.1200
     15 C15        -2.2527    2.0330   50.7503 C.ar    1  ZINC000929592477   -0.1000
     16 N16        -6.3278    2.3676   52.3540 N.am    1  ZINC000929592477   -0.7300
     17 C17        -7.6209    2.5153   51.6813 C.3     1  ZINC000929592477    0.1500
     18 H18        -7.4816    2.6783   50.6127 H       1  ZINC000929592477    0.1200
     19 C19        -8.4384    3.6737   52.3115 C.3     1  ZINC000929592477   -0.1400
     20 C20        -9.0797    2.9722   53.5347 C.3     1  ZINC000929592477    0.1100
     21 N21        -9.3977    1.6113   53.0656 N.pl3   1  ZINC000929592477   -0.6000
     22 C22       -10.3655    0.7833   53.5964 C.2     1  ZINC000929592477    0.4600
     23 C23       -11.6999    0.9792   53.2817 C.2     1  ZINC000929592477   -0.4000
     24 C24       -12.6515    0.1159   53.8421 C.2     1  ZINC000929592477    0.5300
     25 O25       -13.8386    0.2519   53.5917 O.2     1  ZINC000929592477   -0.5500
     26 N26       -12.2304   -0.8685   54.6634 N.am    1  ZINC000929592477   -0.6400
     27 C27       -10.9180   -1.0127   54.9351 C.2     1  ZINC000929592477    0.4100
     28 N28       -10.0196   -0.2210   54.4171 N.2     1  ZINC000929592477   -0.5700
     29 C29        -8.5118    1.2806   51.9337 C.3     1  ZINC000929592477    0.1100
     30 H30        -3.9637    2.2279   53.2381 H       1  ZINC000929592477    0.4100
     31 H31        -2.6532    4.8211   52.6253 H       1  ZINC000929592477    0.1300
     32 H32        -0.5794    5.4329   51.4510 H       1  ZINC000929592477    0.1300
     33 H33        -0.2378    2.9613   47.7197 H       1  ZINC000929592477    0.1000
     34 H34         0.5025    4.8711   46.4504 H       1  ZINC000929592477    0.0700
     35 H35         2.1836    4.7294   47.0624 H       1  ZINC000929592477    0.0800
     36 H36         0.7198    2.9062   45.0751 H       1  ZINC000929592477    0.0700
     37 H37         2.3471    3.6389   44.9178 H       1  ZINC000929592477    0.0700
     38 H38         1.9316    1.0569   45.8326 H       1  ZINC000929592477    0.0700
     39 H39         3.3318    2.0539   46.3190 H       1  ZINC000929592477    0.0700
     40 H40         2.5534    2.0991   48.4674 H       1  ZINC000929592477    0.0700
     41 H41         1.1532    1.1020   47.9809 H       1  ZINC000929592477    0.0800
     42 H42        -0.6531    1.6937   49.3757 H       1  ZINC000929592477    0.1300
     43 H43        -2.7241    1.0812   50.5546 H       1  ZINC000929592477    0.1400
     44 H44        -6.2895    2.0291   53.2622 H       1  ZINC000929592477    0.4000
     45 H45        -7.7846    4.4872   52.6259 H       1  ZINC000929592477    0.0900
     46 H46        -9.2024    4.0327   51.6220 H       1  ZINC000929592477    0.0900
     47 H47        -8.3723    2.9323   54.3631 H       1  ZINC000929592477    0.0700
     48 H48        -9.9892    3.4917   53.8362 H       1  ZINC000929592477    0.0800
     49 H49       -12.0003    1.7785   52.6204 H       1  ZINC000929592477    0.1500
     50 H50       -12.8751   -1.4749   55.0604 H       1  ZINC000929592477    0.4200
     51 H51       -10.6016   -1.8067   55.5952 H       1  ZINC000929592477    0.2100
     52 H52        -9.1079    1.0632   51.0476 H       1  ZINC000929592477    0.0900
     53 H53        -7.8924    0.4202   52.1868 H       1  ZINC000929592477    0.0800
@<TRIPOS>BOND
     1     1     2    2
     2     2     3   am
     3     2    16   am
     4     3     4    1
     5     3    30    1
     6     4    15   ar
     7     4     5   ar
     8     5     6   ar
     9     5    31    1
    10     6     7   ar
    11     6    32    1
    12     7     8    1
    13     7    14   ar
    14     8     9    1
    15     9    13    1
    16     9    10    1
    17     9    33    1
    18    10    11    1
    19    10    34    1
    20    10    35    1
    21    11    12    1
    22    11    36    1
    23    11    37    1
    24    12    13    1
    25    12    38    1
    26    12    39    1
    27    13    40    1
    28    13    41    1
    29    14    15   ar
    30    14    42    1
    31    15    43    1
    32    16    17    1
    33    16    44    1
    34    17    18    1
    35    17    29    1
    36    17    19    1
    37    19    20    1
    38    19    45    1
    39    19    46    1
    40    20    21    1
    41    20    47    1
    42    20    48    1
    43    21    22    1
    44    21    29    1
    45    22    28    1
    46    22    23    2
    47    23    24    1
    48    23    49    1
    49    24    25    2
    50    24    26   am
    51    26    27    1
    52    26    50    1
    53    27    28    2
    54    27    51    1
    55    29    52    1
    56    29    53    1
@<TRIPOS>SUBSTRUCTURE
     1 ZINC000929592477        1 TEMP              0 ****  ****    0 ROOT


##########                                Name:    ZINC000130059363
##########                DOCK_Rotatable_Bonds:                   4
##########                         Heavy_Atoms:                  29
##########                    Molecular_Weight:             389.497
##########                DOCK_Rotatable_Bonds:                   4
##########                       Formal_Charge:          -0.0100003
##########                     HBond_Acceptors:                   5
##########                        HBond_Donors:                   0
##########                         Heavy_Atoms:                  29
##########                          Grid_Score:          -24.721540
##########                     Grid_vdw_energy:          -23.559135
##########                      Grid_es_energy:           -1.162405
##########           Internal_energy_repulsive:           29.046011

@<TRIPOS>MOLECULE
ZINC000130059363
 56 60 1 0 0
SMALL
USER_CHARGES


@<TRIPOS>ATOM
      1 C1          0.2609    6.0796   57.2066 C.3     1  ZINC000130059363   -0.1200
      2 C2          0.1134    4.6683   57.7143 C.ar    1  ZINC000130059363    0.1900
      3 N3         -0.2091    4.4597   58.9718 N.ar    1  ZINC000130059363   -0.4800
      4 C4         -0.3504    3.2342   59.4634 C.ar    1  ZINC000130059363    0.2000
      5 C5         -0.7157    3.0554   60.8887 C.ar    1  ZINC000130059363   -0.0600
      6 C6         -0.9945    4.1659   61.6844 C.ar    1  ZINC000130059363   -0.1000
      7 C7         -1.3344    3.9932   63.0106 C.ar    1  ZINC000130059363   -0.1200
      8 C8         -1.3985    2.7213   63.5511 C.ar    1  ZINC000130059363   -0.1000
      9 C9         -1.1225    1.6158   62.7667 C.ar    1  ZINC000130059363   -0.1300
     10 C10        -0.7875    1.7757   61.4376 C.ar    1  ZINC000130059363   -0.0700
     11 C11        -0.1600    2.1132   58.6558 C.ar    1  ZINC000130059363   -0.1800
     12 C12         0.1797    2.2882   57.3289 C.ar    1  ZINC000130059363   -0.0400
     13 C13         0.3152    3.5958   56.8428 C.ar    1  ZINC000130059363   -0.1900
     14 C14         0.6767    3.8360   55.4309 C.2     1  ZINC000130059363    0.5700
     15 O15         1.8239    4.1085   55.1351 O.2     1  ZINC000130059363   -0.5200
     16 N16        -0.2654    3.7531   54.4706 N.am    1  ZINC000130059363   -0.6000
     17 C17        -1.6586    3.4308   54.8105 C.3     1  ZINC000130059363    0.1000
     18 C18        -2.5618    4.5304   54.2438 C.3     1  ZINC000130059363   -0.1500
     19 C19        -2.3010    4.6959   52.7509 C.3     1  ZINC000130059363    0.1500
     20 H20        -2.9292    5.5079   52.3846 H       1  ZINC000130059363    0.0700
     21 C21        -0.8428    5.0684   52.4906 C.3     1  ZINC000130059363   -0.1100
     22 H22        -0.6185    6.0368   52.9377 H       1  ZINC000130059363    0.1000
     23 C23        -0.6320    5.1279   50.9693 C.3     1  ZINC000130059363   -0.1200
     24 C24        -0.7594    3.7075   50.4131 C.3     1  ZINC000130059363   -0.1400
     25 C25        -1.9984    3.0500   50.9487 C.2     1  ZINC000130059363    0.5200
     26 O26        -2.4158    2.0630   50.3808 O.2     1  ZINC000130059363   -0.5400
     27 N27        -2.6500    3.4883   52.0194 N.am    1  ZINC000130059363   -0.5700
     28 C28        -3.8132    2.7271   52.4817 C.3     1  ZINC000130059363    0.0700
     29 C29        -5.1479    3.4682   52.5825 C.3     1  ZINC000130059363   -0.1800
     30 C30        -4.9228    2.4464   51.4662 C.3     1  ZINC000130059363   -0.1600
     31 C31         0.0758    3.9887   53.0623 C.3     1  ZINC000130059363    0.1100
     32 H32        -0.6726    6.3981   56.7428 H       1  ZINC000130059363    0.0800
     33 H33         0.4977    6.7422   58.0390 H       1  ZINC000130059363    0.0800
     34 H34         1.0641    6.1189   56.4709 H       1  ZINC000130059363    0.1000
     35 H35        -0.9441    5.1594   61.2638 H       1  ZINC000130059363    0.1300
     36 H36        -1.5506    4.8526   63.6279 H       1  ZINC000130059363    0.1300
     37 H37        -1.6646    2.5909   64.5897 H       1  ZINC000130059363    0.1300
     38 H38        -1.1738    0.6253   63.1942 H       1  ZINC000130059363    0.1300
     39 H39        -0.5723    0.9119   60.8261 H       1  ZINC000130059363    0.1400
     40 H40        -0.2766    1.1199   59.0635 H       1  ZINC000130059363    0.1400
     41 H41         0.3335    1.4383   56.6805 H       1  ZINC000130059363    0.1400
     42 H42        -1.9305    2.4705   54.3723 H       1  ZINC000130059363    0.0700
     43 H43        -1.7712    3.3854   55.8937 H       1  ZINC000130059363    0.0900
     44 H44        -3.6056    4.2587   54.4013 H       1  ZINC000130059363    0.0900
     45 H45        -2.3523    5.4702   54.7546 H       1  ZINC000130059363    0.0800
     46 H46        -1.3894    5.7688   50.5179 H       1  ZINC000130059363    0.0800
     47 H47         0.3609    5.5207   50.7506 H       1  ZINC000130059363    0.0900
     48 H48        -0.8142    3.7493   49.3252 H       1  ZINC000130059363    0.1000
     49 H49         0.1140    3.1252   50.7063 H       1  ZINC000130059363    0.1000
     50 H50        -3.6064    1.9586   53.2264 H       1  ZINC000130059363    0.1100
     51 H51        -5.8194    3.1874   53.3939 H       1  ZINC000130059363    0.1100
     52 H52        -5.1605    4.5223   52.3050 H       1  ZINC000130059363    0.1000
     53 H53        -4.7872    2.8281   50.4543 H       1  ZINC000130059363    0.1000
     54 H54        -5.4462    1.4934   51.5432 H       1  ZINC000130059363    0.1000
     55 H55         1.1129    4.3155   52.9871 H       1  ZINC000130059363    0.1000
     56 H56        -0.0571    3.0633   52.5018 H       1  ZINC000130059363    0.0700
@<TRIPOS>BOND
     1     1     2    1
     2     1    32    1
     3     1    33    1
     4     1    34    1
     5     2    13   ar
     6     2     3   ar
     7     3     4   ar
     8     4     5    1
     9     4    11   ar
    10     5    10   ar
    11     5     6   ar
    12     6     7   ar
    13     6    35    1
    14     7     8   ar
    15     7    36    1
    16     8     9   ar
    17     8    37    1
    18     9    10   ar
    19     9    38    1
    20    10    39    1
    21    11    12   ar
    22    11    40    1
    23    12    13   ar
    24    12    41    1
    25    13    14    1
    26    14    15    2
    27    14    16   am
    28    16    31    1
    29    16    17    1
    30    17    18    1
    31    17    42    1
    32    17    43    1
    33    18    19    1
    34    18    44    1
    35    18    45    1
    36    19    20    1
    37    19    27    1
    38    19    21    1
    39    21    22    1
    40    21    23    1
    41    21    31    1
    42    23    24    1
    43    23    46    1
    44    23    47    1
    45    24    25    1
    46    24    48    1
    47    24    49    1
    48    25    26    2
    49    25    27   am
    50    27    28    1
    51    28    30    1
    52    28    29    1
    53    28    50    1
    54    29    30    1
    55    29    51    1
    56    29    52    1
    57    30    53    1
    58    30    54    1
    59    31    55    1
    60    31    56    1
@<TRIPOS>SUBSTRUCTURE
     1 ZINC000130059363        1 TEMP              0 ****  ****    0 ROOT


##########                                Name:    ZINC000463474628
##########                DOCK_Rotatable_Bonds:                   5
##########                         Heavy_Atoms:                  25
##########                    Molecular_Weight:              407.35
##########                DOCK_Rotatable_Bonds:                   5
##########                       Formal_Charge:           0.0200004
##########                     HBond_Acceptors:                   4
##########                        HBond_Donors:                   0
##########                         Heavy_Atoms:                  25
##########                          Grid_Score:          -24.713875
##########                     Grid_vdw_energy:          -23.419359
##########                      Grid_es_energy:           -1.294516
##########           Internal_energy_repulsive:           72.409798

@<TRIPOS>MOLECULE
ZINC000463474628
 52 54 1 0 0
SMALL
USER_CHARGES


@<TRIPOS>ATOM
      1 C1         -9.9666   -0.3302   52.3871 C.3     1  ZINC000463474628   -0.1400
      2 C2        -10.5260    1.0045   51.8904 C.3     1  ZINC000463474628   -0.1300
      3 C3         -9.6607    2.1493   52.4211 C.3     1  ZINC000463474628    0.1400
      4 H4        -10.0611    3.1045   52.0814 H       1  ZINC000463474628    0.0800
      5 C5         -8.2087    1.9828   51.9258 C.3     1  ZINC000463474628   -0.1300
      6 C6         -7.3698    2.4274   53.1529 C.3     1  ZINC000463474628   -0.1300
      7 C7         -8.2349    1.9048   54.3269 C.3     1  ZINC000463474628    0.0900
      8 N8         -9.6309    2.1138   53.8906 N.am    1  ZINC000463474628   -0.6100
      9 C9        -10.6967    2.2472   54.7046 C.2     1  ZINC000463474628    0.5300
     10 O10       -11.8018    2.4155   54.2342 O.2     1  ZINC000463474628   -0.5100
     11 C11       -10.5152    2.1873   56.1995 C.3     1  ZINC000463474628   -0.1200
     12 H12       -11.4892    2.1011   56.6811 H       1  ZINC000463474628    0.1000
     13 C13        -9.8185    3.4620   56.6810 C.3     1  ZINC000463474628   -0.1000
     14 C14        -9.6632    3.4168   58.2028 C.3     1  ZINC000463474628   -0.1300
     15 C15        -8.7937    2.2157   58.5879 C.3     1  ZINC000463474628    0.0900
     16 N16        -9.3801    1.0013   58.0048 N.am    1  ZINC000463474628   -0.6000
     17 C17        -9.6600   -0.0660   58.7789 C.2     1  ZINC000463474628    0.5700
     18 O18       -10.1451   -1.0649   58.2845 O.2     1  ZINC000463474628   -0.5200
     19 C19        -9.3774   -0.0217   60.2289 C.ar    1  ZINC000463474628   -0.1200
     20 C20        -8.1511   -0.4751   60.7180 C.ar    1  ZINC000463474628   -0.0800
     21 C21        -7.8932   -0.4313   62.0722 C.ar    1  ZINC000463474628   -0.1000
     22 C22        -8.8477    0.0612   62.9460 C.ar    1  ZINC000463474628   -0.0700
     23 Br23       -8.4858    0.1184   64.8011 Br      1  ZINC000463474628   -0.0400
     24 C24       -10.0662    0.5126   62.4668 C.ar    1  ZINC000463474628   -0.0900
     25 C25       -10.3336    0.4792   61.1145 C.ar    1  ZINC000463474628   -0.0300
     26 C26       -11.6600    0.9706   60.5948 C.3     1  ZINC000463474628   -0.1300
     27 C27        -9.6562    0.9718   56.5620 C.3     1  ZINC000463474628    0.1200
     28 H28        -9.1544   -0.6493   51.7342 H       1  ZINC000463474628    0.0700
     29 H29        -9.5904   -0.2108   53.4032 H       1  ZINC000463474628    0.0600
     30 H30       -10.7566   -1.0811   52.3781 H       1  ZINC000463474628    0.0300
     31 H31       -10.5184    1.0184   50.8004 H       1  ZINC000463474628    0.0600
     32 H32       -11.5484    1.1257   52.2482 H       1  ZINC000463474628    0.0700
     33 H33        -8.0036    0.9420   51.6752 H       1  ZINC000463474628    0.0800
     34 H34        -8.0159    2.6315   51.0713 H       1  ZINC000463474628    0.0800
     35 H35        -6.3889    1.9521   53.1486 H       1  ZINC000463474628    0.0900
     36 H36        -7.2761    3.5127   53.1896 H       1  ZINC000463474628    0.0800
     37 H37        -8.0438    0.8453   54.4966 H       1  ZINC000463474628    0.0700
     38 H38        -8.0320    2.4775   55.2319 H       1  ZINC000463474628    0.0800
     39 H39        -8.8347    3.5353   56.2175 H       1  ZINC000463474628    0.0800
     40 H40       -10.4163    4.3299   56.4026 H       1  ZINC000463474628    0.0700
     41 H41        -9.1880    4.3353   58.5475 H       1  ZINC000463474628    0.0800
     42 H42       -10.6450    3.3187   58.6659 H       1  ZINC000463474628    0.0700
     43 H43        -7.7845    2.3562   58.2011 H       1  ZINC000463474628    0.0800
     44 H44        -8.7615    2.1210   59.6733 H       1  ZINC000463474628    0.1000
     45 H45        -7.4060   -0.8599   60.0374 H       1  ZINC000463474628    0.1400
     46 H46        -6.9450   -0.7822   62.4518 H       1  ZINC000463474628    0.1400
     47 H47       -10.8070    0.8952   63.1533 H       1  ZINC000463474628    0.1400
     48 H48       -11.5647    2.0100   60.2808 H       1  ZINC000463474628    0.0700
     49 H49       -11.9656    0.3608   59.7446 H       1  ZINC000463474628    0.0900
     50 H50       -12.4092    0.8964   61.3831 H       1  ZINC000463474628    0.0700
     51 H51       -10.1923    0.0565   56.3111 H       1  ZINC000463474628    0.1000
     52 H52        -8.7173    1.0110   56.0095 H       1  ZINC000463474628    0.0800
@<TRIPOS>BOND
     1     1     2    1
     2     1    28    1
     3     1    29    1
     4     1    30    1
     5     2     3    1
     6     2    31    1
     7     2    32    1
     8     3     4    1
     9     3     8    1
    10     3     5    1
    11     5     6    1
    12     5    33    1
    13     5    34    1
    14     6     7    1
    15     6    35    1
    16     6    36    1
    17     7     8    1
    18     7    37    1
    19     7    38    1
    20     8     9   am
    21     9    10    2
    22     9    11    1
    23    11    12    1
    24    11    27    1
    25    11    13    1
    26    13    14    1
    27    13    39    1
    28    13    40    1
    29    14    15    1
    30    14    41    1
    31    14    42    1
    32    15    16    1
    33    15    43    1
    34    15    44    1
    35    16    17   am
    36    16    27    1
    37    17    18    2
    38    17    19    1
    39    19    25   ar
    40    19    20   ar
    41    20    21   ar
    42    20    45    1
    43    21    22   ar
    44    21    46    1
    45    22    23    1
    46    22    24   ar
    47    24    25   ar
    48    24    47    1
    49    25    26    1
    50    26    48    1
    51    26    49    1
    52    26    50    1
    53    27    51    1
    54    27    52    1
@<TRIPOS>SUBSTRUCTURE
     1 ZINC000463474628        1 TEMP              0 ****  ****    0 ROOT


##########                                Name:    ZINC000496437542
##########                DOCK_Rotatable_Bonds:                   7
##########                         Heavy_Atoms:                  24
##########                    Molecular_Weight:             338.447
##########                DOCK_Rotatable_Bonds:                   7
##########                       Formal_Charge:           0.0400002
##########                     HBond_Acceptors:                   6
##########                        HBond_Donors:                   1
##########                         Heavy_Atoms:                  24
##########                          Grid_Score:          -24.658714
##########                     Grid_vdw_energy:          -24.531639
##########                      Grid_es_energy:           -0.127074
##########           Internal_energy_repulsive:           14.369390

@<TRIPOS>MOLECULE
ZINC000496437542
 54 55 1 0 0
SMALL
USER_CHARGES


@<TRIPOS>ATOM
      1 C1         -0.1123    3.2191   55.4185 C.3     1  ZINC000496437542   -0.1800
      2 C2         -1.5737    3.2575   55.8700 C.3     1  ZINC000496437542    0.1400
      3 C3         -1.6781    2.7366   57.3048 C.3     1  ZINC000496437542   -0.1800
      4 C4         -2.0878    4.6973   55.8115 C.3     1  ZINC000496437542   -0.1400
      5 O5         -2.3735    2.4219   54.9924 O.3     1  ZINC000496437542   -0.3600
      6 C6         -3.6880    2.7018   54.9124 C.2     1  ZINC000496437542    0.6600
      7 O7         -4.3879    2.6192   55.9023 O.2     1  ZINC000496437542   -0.5600
      8 N8         -4.2276    3.0734   53.7347 N.am    1  ZINC000496437542   -0.6000
      9 C9         -3.4001    3.1803   52.5226 C.3     1  ZINC000496437542    0.0800
     10 C10        -4.0861    2.3963   51.3980 C.3     1  ZINC000496437542    0.0500
     11 O11        -5.4429    2.8313   51.2809 O.3     1  ZINC000496437542   -0.3700
     12 C12        -6.2375    2.5897   52.4446 C.3     1  ZINC000496437542    0.0700
     13 H13        -6.2231    1.5257   52.6808 H       1  ZINC000496437542    0.0700
     14 C14        -7.6774    3.0353   52.1817 C.3     1  ZINC000496437542    0.1300
     15 N15        -8.5972    2.1941   52.9514 N.am    1  ZINC000496437542   -0.7200
     16 C16        -9.7354    1.7468   52.3849 C.2     1  ZINC000496437542    0.5600
     17 O17        -9.9982    2.0404   51.2344 O.2     1  ZINC000496437542   -0.5400
     18 C18       -10.6599    0.9035   53.1583 C.2     1  ZINC000496437542   -0.1900
     19 C19       -10.2165   -0.1875   53.7445 C.2     1  ZINC000496437542   -0.0600
     20 C20       -11.1595   -1.0630   54.5425 C.3     1  ZINC000496437542   -0.1000
     21 C21       -11.5221   -0.3341   55.8383 C.3     1  ZINC000496437542   -0.1100
     22 C22       -12.6940    0.6051   55.6189 C.3     1  ZINC000496437542   -0.1200
     23 C23       -12.3794    1.7759   54.7056 C.3     1  ZINC000496437542   -0.1200
     24 C24       -12.1164    1.2985   53.2812 C.3     1  ZINC000496437542   -0.0800
     25 C25        -5.6627    3.3782   53.6214 C.3     1  ZINC000496437542    0.1000
     26 H26         0.2541    2.1934   55.4602 H       1  ZINC000496437542    0.0900
     27 H27        -0.0380    3.5902   54.3964 H       1  ZINC000496437542    0.0600
     28 H28         0.4881    3.8464   56.0774 H       1  ZINC000496437542    0.0700
     29 H29        -1.0777    3.3639   57.9637 H       1  ZINC000496437542    0.0700
     30 H30        -2.7192    2.7641   57.6265 H       1  ZINC000496437542    0.0600
     31 H31        -1.3117    1.7108   57.3465 H       1  ZINC000496437542    0.0900
     32 H32        -2.0135    5.0684   54.7893 H       1  ZINC000496437542    0.0700
     33 H33        -3.1289    4.7247   56.1331 H       1  ZINC000496437542    0.0700
     34 H34        -1.4874    5.3246   56.4704 H       1  ZINC000496437542    0.0800
     35 H35        -3.3043    4.2273   52.2347 H       1  ZINC000496437542    0.0800
     36 H36        -2.4128    2.7598   52.7138 H       1  ZINC000496437542    0.1000
     37 H37        -3.5639    2.5755   50.4581 H       1  ZINC000496437542    0.1100
     38 H38        -4.0639    1.3316   51.6304 H       1  ZINC000496437542    0.0600
     39 H39        -7.7968    4.0757   52.4845 H       1  ZINC000496437542    0.0900
     40 H40        -7.8994    2.9386   51.1189 H       1  ZINC000496437542    0.0800
     41 H41        -8.3870    1.9588   53.8686 H       1  ZINC000496437542    0.4000
     42 H42        -9.1752   -0.4602   53.6558 H       1  ZINC000496437542    0.1300
     43 H43       -12.0633   -1.2507   53.9629 H       1  ZINC000496437542    0.0800
     44 H44       -10.6701   -2.0079   54.7786 H       1  ZINC000496437542    0.0800
     45 H45       -11.7878   -1.0672   56.5998 H       1  ZINC000496437542    0.0700
     46 H46       -10.6611    0.2405   56.1797 H       1  ZINC000496437542    0.0700
     47 H47       -13.5180    0.0379   55.1859 H       1  ZINC000496437542    0.0600
     48 H48       -13.0137    0.9942   56.5855 H       1  ZINC000496437542    0.0600
     49 H49       -13.2232    2.4658   54.7032 H       1  ZINC000496437542    0.0700
     50 H50       -11.4951    2.2933   55.0776 H       1  ZINC000496437542    0.0600
     51 H51       -12.3374    2.1024   52.5790 H       1  ZINC000496437542    0.0700
     52 H52       -12.7448    0.4350   53.0626 H       1  ZINC000496437542    0.0800
     53 H53        -6.1741    3.0912   54.5403 H       1  ZINC000496437542    0.1100
     54 H54        -5.7929    4.4461   53.4464 H       1  ZINC000496437542    0.0900
@<TRIPOS>BOND
     1     1     2    1
     2     1    26    1
     3     1    27    1
     4     1    28    1
     5     2     3    1
     6     2     4    1
     7     2     5    1
     8     3    29    1
     9     3    30    1
    10     3    31    1
    11     4    32    1
    12     4    33    1
    13     4    34    1
    14     5     6    1
    15     6     7    2
    16     6     8   am
    17     8    25    1
    18     8     9    1
    19     9    10    1
    20     9    35    1
    21     9    36    1
    22    10    11    1
    23    10    37    1
    24    10    38    1
    25    11    12    1
    26    12    13    1
    27    12    14    1
    28    12    25    1
    29    14    15    1
    30    14    39    1
    31    14    40    1
    32    15    16   am
    33    15    41    1
    34    16    17    2
    35    16    18    1
    36    18    24    1
    37    18    19    2
    38    19    20    1
    39    19    42    1
    40    20    21    1
    41    20    43    1
    42    20    44    1
    43    21    22    1
    44    21    45    1
    45    21    46    1
    46    22    23    1
    47    22    47    1
    48    22    48    1
    49    23    24    1
    50    23    49    1
    51    23    50    1
    52    24    51    1
    53    24    52    1
    54    25    53    1
    55    25    54    1
@<TRIPOS>SUBSTRUCTURE
     1 ZINC000496437542        1 TEMP              0 ****  ****    0 ROOT


##########                                Name:    ZINC000549381790
##########                DOCK_Rotatable_Bonds:                   7
##########                         Heavy_Atoms:                  23
##########                    Molecular_Weight:             337.846
##########                DOCK_Rotatable_Bonds:                   7
##########                       Formal_Charge:           0.0300006
##########                     HBond_Acceptors:                   5
##########                        HBond_Donors:                   0
##########                         Heavy_Atoms:                  23
##########                          Grid_Score:          -24.649805
##########                     Grid_vdw_energy:          -23.715103
##########                      Grid_es_energy:           -0.934702
##########           Internal_energy_repulsive:           85.508568

@<TRIPOS>MOLECULE
ZINC000549381790
 47 49 1 0 0
SMALL
USER_CHARGES


@<TRIPOS>ATOM
      1 C1          4.6786    1.7961   43.7622 C.3     1  ZINC000549381790   -0.1400
      2 C2          4.2121    3.1438   43.2084 C.3     1  ZINC000549381790    0.1500
      3 H3          4.9800    3.8970   43.3850 H       1  ZINC000549381790    0.0700
      4 C4          3.9519    3.0187   41.7040 C.3     1  ZINC000549381790   -0.1300
      5 C5          3.3544    4.3277   41.1830 C.3     1  ZINC000549381790   -0.1200
      6 C6          2.0202    4.5957   41.8832 C.3     1  ZINC000549381790   -0.1400
      7 C7          2.2585    4.7387   43.3897 C.3     1  ZINC000549381790    0.1000
      8 N8          2.9659    3.5454   43.8750 N.am    1  ZINC000549381790   -0.6100
      9 C9          2.4780    2.8306   44.9081 C.2     1  ZINC000549381790    0.5200
     10 O10         3.0712    1.8476   45.2991 O.2     1  ZINC000549381790   -0.5000
     11 C11         1.1953    3.2527   45.5773 C.3     1  ZINC000549381790    0.0400
     12 O12         0.8373    2.2898   46.5708 O.3     1  ZINC000549381790   -0.2800
     13 C13         0.0555    2.7222   47.5960 C.ar    1  ZINC000549381790    0.1100
     14 C14        -1.2775    2.3451   47.6581 C.ar    1  ZINC000549381790   -0.1700
     15 C15        -2.0723    2.7837   48.6998 C.ar    1  ZINC000549381790   -0.1600
     16 C16        -1.5374    3.6016   49.6833 C.ar    1  ZINC000549381790    0.1100
     17 O17        -2.3198    4.0334   50.7086 O.3     1  ZINC000549381790   -0.3000
     18 C18        -2.2455    3.3018   51.9339 C.3     1  ZINC000549381790    0.0900
     19 C19        -2.4450    4.2579   53.1116 C.3     1  ZINC000549381790   -0.1600
     20 C20        -3.8400    4.3276   53.7362 C.3     1  ZINC000549381790   -0.1700
     21 C21        -2.6987    3.6399   54.4881 C.3     1  ZINC000549381790   -0.1700
     22 C22        -0.2030    3.9795   49.6215 C.ar    1  ZINC000549381790   -0.0300
     23 Cl23        0.4674    5.0032   50.8530 Cl      1  ZINC000549381790   -0.0400
     24 C24         0.5930    3.5358   48.5826 C.ar    1  ZINC000549381790   -0.1000
     25 H25         3.8715    1.0686   43.6754 H       1  ZINC000549381790    0.0600
     26 H26         5.5425    1.4496   43.1950 H       1  ZINC000549381790    0.0500
     27 H27         4.9543    1.9097   44.8106 H       1  ZINC000549381790    0.0800
     28 H28         4.8906    2.8165   41.1881 H       1  ZINC000549381790    0.0800
     29 H29         3.2532    2.2021   41.5223 H       1  ZINC000549381790    0.0700
     30 H30         4.0429    5.1478   41.3871 H       1  ZINC000549381790    0.0700
     31 H31         3.1912    4.2500   40.1081 H       1  ZINC000549381790    0.0700
     32 H32         1.5839    5.5160   41.4950 H       1  ZINC000549381790    0.0800
     33 H33         1.3397    3.7643   41.6999 H       1  ZINC000549381790    0.0700
     34 H34         2.8653    5.6237   43.5813 H       1  ZINC000549381790    0.0800
     35 H35         1.3018    4.8308   43.9039 H       1  ZINC000549381790    0.0800
     36 H36         1.3343    4.2259   46.0480 H       1  ZINC000549381790    0.0900
     37 H37         0.4019    3.3191   44.8330 H       1  ZINC000549381790    0.0900
     38 H38        -1.6948    1.7085   46.8919 H       1  ZINC000549381790    0.1400
     39 H39        -3.1104    2.4898   48.7478 H       1  ZINC000549381790    0.1400
     40 H40        -3.0237    2.5388   51.9494 H       1  ZINC000549381790    0.0700
     41 H41        -1.2682    2.8257   52.0141 H       1  ZINC000549381790    0.0700
     42 H42        -1.8639    5.1792   53.0728 H       1  ZINC000549381790    0.1200
     43 H43        -4.1769    5.2951   54.1085 H       1  ZINC000549381790    0.1000
     44 H44        -4.6154    3.6925   53.3081 H       1  ZINC000549381790    0.1000
     45 H45        -2.7232    2.5523   54.5547 H       1  ZINC000549381790    0.1000
     46 H46        -2.2847    4.1550   55.3549 H       1  ZINC000549381790    0.1000
     47 H47         1.6311    3.8295   48.5341 H       1  ZINC000549381790    0.1500
@<TRIPOS>BOND
     1     1     2    1
     2     1    25    1
     3     1    26    1
     4     1    27    1
     5     2     3    1
     6     2     8    1
     7     2     4    1
     8     4     5    1
     9     4    28    1
    10     4    29    1
    11     5     6    1
    12     5    30    1
    13     5    31    1
    14     6     7    1
    15     6    32    1
    16     6    33    1
    17     7     8    1
    18     7    34    1
    19     7    35    1
    20     8     9   am
    21     9    10    2
    22     9    11    1
    23    11    12    1
    24    11    36    1
    25    11    37    1
    26    12    13    1
    27    13    24   ar
    28    13    14   ar
    29    14    15   ar
    30    14    38    1
    31    15    16   ar
    32    15    39    1
    33    16    17    1
    34    16    22   ar
    35    17    18    1
    36    18    19    1
    37    18    40    1
    38    18    41    1
    39    19    21    1
    40    19    20    1
    41    19    42    1
    42    20    21    1
    43    20    43    1
    44    20    44    1
    45    21    45    1
    46    21    46    1
    47    22    23    1
    48    22    24   ar
    49    24    47    1
@<TRIPOS>SUBSTRUCTURE
     1 ZINC000549381790        1 TEMP              0 ****  ****    0 ROOT


##########                                Name:    ZINC000928803822
##########                DOCK_Rotatable_Bonds:                   7
##########                         Heavy_Atoms:                  21
##########                    Molecular_Weight:             364.165
##########                DOCK_Rotatable_Bonds:                   7
##########                       Formal_Charge:         -0.00999978
##########                     HBond_Acceptors:                   7
##########                        HBond_Donors:                   1
##########                         Heavy_Atoms:                  21
##########                          Grid_Score:          -24.634571
##########                     Grid_vdw_energy:          -23.263735
##########                      Grid_es_energy:           -1.370837
##########           Internal_energy_repulsive:            8.676987

@<TRIPOS>MOLECULE
ZINC000928803822
 34 34 1 0 0
SMALL
USER_CHARGES


@<TRIPOS>ATOM
      1 C1         -2.6064    4.9956   55.2656 C.3     1  ZINC000928803822    0.0900
      2 N2         -2.6891    3.5908   54.8582 N.pl3   1  ZINC000928803822   -0.6300
      3 C3         -2.3019    2.5326   55.7944 C.3     1  ZINC000928803822    0.0900
      4 C4         -3.1374    3.2603   53.5769 C.ar    1  ZINC000928803822    0.2200
      5 C5         -2.2268    3.1239   52.5360 C.ar    1  ZINC000928803822   -0.1500
      6 C6         -2.6658    2.7968   51.2656 C.ar    1  ZINC000928803822   -0.0500
      7 Br7        -1.4190    2.6129   49.8558 Br      1  ZINC000928803822   -0.0400
      8 C8         -4.0115    2.6038   51.0239 C.ar    1  ZINC000928803822   -0.1200
      9 C9         -4.9337    2.7386   52.0632 C.ar    1  ZINC000928803822   -0.0800
     10 C10        -6.3753    2.5324   51.8071 C.2     1  ZINC000928803822    0.5700
     11 O11        -6.9135    3.0957   50.8741 O.2     1  ZINC000928803822   -0.5100
     12 N12        -7.0926    1.7197   52.6081 N.am    1  ZINC000928803822   -0.7200
     13 C13        -8.5212    1.5168   52.3554 C.3     1  ZINC000928803822    0.1100
     14 H14        -8.8152    2.0725   51.4649 H       1  ZINC000928803822    0.1400
     15 C15        -9.3274    2.0148   53.5566 C.3     1  ZINC000928803822   -0.0300
     16 C16       -10.7539    1.7183   53.3472 C.1     1  ZINC000928803822    0.2000
     17 N17       -11.8548    1.4895   53.1856 N.1     1  ZINC000928803822   -0.4000
     18 C18        -8.7945    0.0269   52.1400 C.3     1  ZINC000928803822    0.4400
     19 F19        -9.9400   -0.1279   51.3520 F       1  ZINC000928803822   -0.1800
     20 F20        -7.7010   -0.5592   51.4936 F       1  ZINC000928803822   -0.1700
     21 F21        -8.9925   -0.5945   53.3776 F       1  ZINC000928803822   -0.1600
     22 C22        -4.4904    3.0628   53.3451 C.ar    1  ZINC000928803822   -0.1200
     23 H23        -1.6204    5.3884   55.0173 H       1  ZINC000928803822    0.0600
     24 H24        -3.3693    5.5714   54.7416 H       1  ZINC000928803822    0.0700
     25 H25        -2.7679    5.0722   56.3408 H       1  ZINC000928803822    0.0700
     26 H26        -3.1713    2.2258   56.3758 H       1  ZINC000928803822    0.0500
     27 H27        -1.9169    1.6781   55.2379 H       1  ZINC000928803822    0.0700
     28 H28        -1.5292    2.9066   56.4661 H       1  ZINC000928803822    0.0700
     29 H29        -1.1732    3.2742   52.7193 H       1  ZINC000928803822    0.1400
     30 H30        -4.3506    2.3489   50.0307 H       1  ZINC000928803822    0.1300
     31 H31        -6.6628    1.2692   53.3519 H       1  ZINC000928803822    0.4100
     32 H32        -8.9808    1.5129   54.4601 H       1  ZINC000928803822    0.1400
     33 H33        -9.1918    3.0910   53.6642 H       1  ZINC000928803822    0.1300
     34 H34        -5.1994    3.1683   54.1529 H       1  ZINC000928803822    0.1500
@<TRIPOS>BOND
     1     1     2    1
     2     1    23    1
     3     1    24    1
     4     1    25    1
     5     2     3    1
     6     2     4    1
     7     3    26    1
     8     3    27    1
     9     3    28    1
    10     4    22   ar
    11     4     5   ar
    12     5     6   ar
    13     5    29    1
    14     6     7    1
    15     6     8   ar
    16     8     9   ar
    17     8    30    1
    18     9    10    1
    19     9    22   ar
    20    10    11    2
    21    10    12   am
    22    12    13    1
    23    12    31    1
    24    13    14    1
    25    13    15    1
    26    13    18    1
    27    15    16    1
    28    15    32    1
    29    15    33    1
    30    16    17    3
    31    18    19    1
    32    18    20    1
    33    18    21    1
    34    22    34    1
@<TRIPOS>SUBSTRUCTURE
     1 ZINC000928803822        1 TEMP              0 ****  ****    0 ROOT


##########                                Name:    ZINC000011498449
##########                DOCK_Rotatable_Bonds:                   5
##########                         Heavy_Atoms:                  21
##########                    Molecular_Weight:             331.198
##########                DOCK_Rotatable_Bonds:                   5
##########                       Formal_Charge:         1.30385e-07
##########                     HBond_Acceptors:                   7
##########                        HBond_Donors:                   1
##########                         Heavy_Atoms:                  21
##########                          Grid_Score:          -24.603212
##########                     Grid_vdw_energy:          -24.622093
##########                      Grid_es_energy:            0.018882
##########           Internal_energy_repulsive:           11.763488

@<TRIPOS>MOLECULE
ZINC000011498449
 37 38 1 0 0
SMALL
USER_CHARGES


@<TRIPOS>ATOM
      1 C1        -15.7679   -3.8014   58.9818 C.3     1  ZINC000011498449   -0.1500
      2 C2        -14.8470   -3.7494   57.7610 C.3     1  ZINC000011498449    0.0700
      3 H3        -14.3968   -4.7293   57.6025 H       1  ZINC000011498449    0.0600
      4 C4        -13.7439   -2.7111   57.9958 C.3     1  ZINC000011498449    0.0800
      5 N5        -12.9886   -2.5453   56.7437 N.am    1  ZINC000011498449   -0.6100
      6 C6        -11.6430   -2.6203   56.7301 C.2     1  ZINC000011498449    0.5100
      7 O7        -11.0384   -2.4794   55.6883 O.2     1  ZINC000011498449   -0.5300
      8 C8        -10.8898   -2.8791   58.0095 C.3     1  ZINC000011498449    0.1000
      9 N9        -10.8520   -1.6530   58.8105 N.am    1  ZINC000011498449   -0.7200
     10 C10        -9.7630   -1.3649   59.5506 C.2     1  ZINC000011498449    0.5600
     11 O11        -8.8117   -2.1217   59.5524 O.2     1  ZINC000011498449   -0.5100
     12 C12        -9.7256   -0.1296   60.3596 C.ar    1  ZINC000011498449   -0.1300
     13 C13       -10.4620   -0.0437   61.5427 C.ar    1  ZINC000011498449   -0.0600
     14 C14       -10.4227    1.1117   62.2938 C.ar    1  ZINC000011498449   -0.1100
     15 C15        -9.6547    2.1870   61.8776 C.ar    1  ZINC000011498449    0.0000
     16 Cl16       -9.6108    3.6377   62.8300 Cl      1  ZINC000011498449   -0.0400
     17 C17        -8.9217    2.1094   60.7055 C.ar    1  ZINC000011498449   -0.1100
     18 C18        -8.9482    0.9562   59.9469 C.ar    1  ZINC000011498449    0.0300
     19 Cl19       -8.0288    0.8599   58.4776 Cl      1  ZINC000011498449   -0.0100
     20 C20       -13.7459   -2.2958   55.5069 C.3     1  ZINC000011498449    0.0700
     21 C21       -14.8489   -3.3543   55.3935 C.3     1  ZINC000011498449    0.0500
     22 O22       -15.6049   -3.3796   56.6066 O.3     1  ZINC000011498449   -0.3700
     23 H23       -16.5530   -4.5385   58.8135 H       1  ZINC000011498449    0.0700
     24 H24       -15.1890   -4.0816   59.8618 H       1  ZINC000011498449    0.0800
     25 H25       -16.2176   -2.8212   59.1397 H       1  ZINC000011498449    0.0700
     26 H26       -14.1907   -1.7595   58.2837 H       1  ZINC000011498449    0.0800
     27 H27       -13.0758   -3.0571   58.7845 H       1  ZINC000011498449    0.1000
     28 H28       -11.3909   -3.6660   58.5733 H       1  ZINC000011498449    0.1000
     29 H29        -9.8722   -3.1916   57.7752 H       1  ZINC000011498449    0.1000
     30 H30       -11.6106   -1.0486   58.8082 H       1  ZINC000011498449    0.4100
     31 H31       -11.0616   -0.8807   61.8687 H       1  ZINC000011498449    0.1500
     32 H32       -10.9924    1.1789   63.2089 H       1  ZINC000011498449    0.1500
     33 H33        -8.3249    2.9510   60.3863 H       1  ZINC000011498449    0.1500
     34 H34       -14.1929   -1.3024   55.5443 H       1  ZINC000011498449    0.0900
     35 H35       -13.0792   -2.3668   54.6476 H       1  ZINC000011498449    0.1000
     36 H36       -15.5064   -3.1072   54.5600 H       1  ZINC000011498449    0.1100
     37 H37       -14.3987   -4.3326   55.2255 H       1  ZINC000011498449    0.0600
@<TRIPOS>BOND
     1     1     2    1
     2     1    23    1
     3     1    24    1
     4     1    25    1
     5     2     3    1
     6     2    22    1
     7     2     4    1
     8     4     5    1
     9     4    26    1
    10     4    27    1
    11     5     6   am
    12     5    20    1
    13     6     7    2
    14     6     8    1
    15     8     9    1
    16     8    28    1
    17     8    29    1
    18     9    10   am
    19     9    30    1
    20    10    11    2
    21    10    12    1
    22    12    18   ar
    23    12    13   ar
    24    13    14   ar
    25    13    31    1
    26    14    15   ar
    27    14    32    1
    28    15    16    1
    29    15    17   ar
    30    17    18   ar
    31    17    33    1
    32    18    19    1
    33    20    21    1
    34    20    34    1
    35    20    35    1
    36    21    22    1
    37    21    36    1
    38    21    37    1
@<TRIPOS>SUBSTRUCTURE
     1 ZINC000011498449        1 TEMP              0 ****  ****    0 ROOT


##########                                Name:    ZINC000176150038
##########                DOCK_Rotatable_Bonds:                   4
##########                         Heavy_Atoms:                  23
##########                    Molecular_Weight:             333.712
##########                DOCK_Rotatable_Bonds:                   4
##########                       Formal_Charge:        -2.23517e-07
##########                     HBond_Acceptors:                  10
##########                        HBond_Donors:                   1
##########                         Heavy_Atoms:                  23
##########                          Grid_Score:          -24.542147
##########                     Grid_vdw_energy:          -23.054770
##########                      Grid_es_energy:           -1.487376
##########           Internal_energy_repulsive:           14.143687

@<TRIPOS>MOLECULE
ZINC000176150038
 32 34 1 0 0
SMALL
USER_CHARGES


@<TRIPOS>ATOM
      1 C1         -7.8539   -1.0207   60.1572 C.3     1  ZINC000176150038   -0.0900
      2 C2         -9.1619   -0.9736   59.4101 C.2     1  ZINC000176150038    0.2600
      3 N3        -10.0515   -1.9294   59.3436 N.2     1  ZINC000176150038   -0.3300
      4 N4        -11.0531   -1.5667   58.6263 N.2     1  ZINC000176150038   -0.0300
      5 N5        -10.8761   -0.3667   58.1887 N.2     1  ZINC000176150038   -0.0700
      6 N6         -9.6356    0.0659   58.6896 N.pl3   1  ZINC000176150038   -0.3300
      7 C7         -9.0183    1.3084   58.4795 C.ar    1  ZINC000176150038    0.1400
      8 C8         -9.0355    2.2702   59.4802 C.ar    1  ZINC000176150038   -0.1000
      9 C9         -8.4277    3.4945   59.2752 C.ar    1  ZINC000176150038   -0.1100
     10 C10        -7.8005    3.7651   58.0728 C.ar    1  ZINC000176150038    0.1000
     11 F11        -7.2067    4.9625   57.8753 F       1  ZINC000176150038   -0.1200
     12 C12        -7.7805    2.8043   57.0665 C.ar    1  ZINC000176150038    0.1300
     13 N13        -7.1460    3.0774   55.8495 N.am    1  ZINC000176150038   -0.6500
     14 C14        -5.8122    2.9217   55.7352 C.2     1  ZINC000176150038    0.5700
     15 O15        -5.1606    2.5441   56.6887 O.2     1  ZINC000176150038   -0.4800
     16 C16        -5.1396    3.2112   54.4452 C.ar    1  ZINC000176150038    0.1400
     17 N17        -5.8544    3.4534   53.3485 N.ar    1  ZINC000176150038   -0.4800
     18 C18        -5.2617    3.7110   52.2028 C.ar    1  ZINC000176150038    0.3000
     19 N19        -3.9481    3.7412   52.0874 N.ar    1  ZINC000176150038   -0.4800
     20 C20        -3.1666    3.5117   53.1283 C.ar    1  ZINC000176150038    0.1700
     21 C21        -3.7455    3.2401   54.3617 C.ar    1  ZINC000176150038   -0.1000
     22 Cl22       -2.7625    2.9326   55.7592 Cl      1  ZINC000176150038    0.0100
     23 C23        -8.3857    1.5736   57.2734 C.ar    1  ZINC000176150038   -0.0800
     24 H24        -8.0044   -0.6631   61.1758 H       1  ZINC000176150038    0.1100
     25 H25        -7.4869   -2.0467   60.1827 H       1  ZINC000176150038    0.1100
     26 H26        -7.1247   -0.3863   59.6533 H       1  ZINC000176150038    0.0900
     27 H27        -9.5250    2.0618   60.4201 H       1  ZINC000176150038    0.1500
     28 H28        -8.4429    4.2413   60.0553 H       1  ZINC000176150038    0.1600
     29 H29        -7.6662    3.3788   55.0883 H       1  ZINC000176150038    0.4300
     30 H30        -5.8688    3.9031   51.3305 H       1  ZINC000176150038    0.2200
     31 H31        -2.0921    3.5390   53.0224 H       1  ZINC000176150038    0.1900
     32 H32        -8.3716    0.8260   56.4941 H       1  ZINC000176150038    0.1700
@<TRIPOS>BOND
     1     1     2    1
     2     1    24    1
     3     1    25    1
     4     1    26    1
     5     2     6    1
     6     2     3    2
     7     3     4    1
     8     4     5    2
     9     5     6    1
    10     6     7    1
    11     7    23   ar
    12     7     8   ar
    13     8     9   ar
    14     8    27    1
    15     9    10   ar
    16     9    28    1
    17    10    11    1
    18    10    12   ar
    19    12    13    1
    20    12    23   ar
    21    13    14   am
    22    13    29    1
    23    14    15    2
    24    14    16    1
    25    16    21   ar
    26    16    17   ar
    27    17    18   ar
    28    18    19   ar
    29    18    30    1
    30    19    20   ar
    31    20    21   ar
    32    20    31    1
    33    21    22    1
    34    23    32    1
@<TRIPOS>SUBSTRUCTURE
     1 ZINC000176150038        1 TEMP              0 ****  ****    0 ROOT


##########                                Name:    ZINC000540473851
##########                DOCK_Rotatable_Bonds:                   5
##########                         Heavy_Atoms:                  29
##########                    Molecular_Weight:             411.503
##########                DOCK_Rotatable_Bonds:                   5
##########                       Formal_Charge:           0.0200001
##########                     HBond_Acceptors:                   8
##########                        HBond_Donors:                   0
##########                         Heavy_Atoms:                  29
##########                          Grid_Score:          -24.525364
##########                     Grid_vdw_energy:          -24.672459
##########                      Grid_es_energy:            0.147094
##########           Internal_energy_repulsive:           24.568649

@<TRIPOS>MOLECULE
ZINC000540473851
 51 54 1 0 0
SMALL
USER_CHARGES


@<TRIPOS>ATOM
      1 C1        -10.2848    1.3477   55.0358 C.3     1  ZINC000540473851   -0.0800
      2 C2         -9.0644    2.1928   54.7762 C.2     1  ZINC000540473851    0.1500
      3 C3         -8.7318    3.2777   55.5431 C.2     1  ZINC000540473851   -0.3100
      4 C4         -9.4791    3.7803   56.7024 C.2     1  ZINC000540473851    0.6000
      5 O5        -10.3473    4.6190   56.5494 O.2     1  ZINC000540473851   -0.5100
      6 N6         -9.2036    3.3127   57.9360 N.am    1  ZINC000540473851   -0.6100
      7 C7         -9.9443    3.7981   59.1102 C.3     1  ZINC000540473851    0.1000
      8 C8        -10.4621    2.5872   59.8938 C.3     1  ZINC000540473851    0.0400
      9 N9         -9.3409    1.6872   60.1952 N.3     1  ZINC000540473851   -0.5300
     10 C10        -9.7629    0.6023   61.0911 C.3     1  ZINC000540473851    0.1200
     11 H11       -10.5876    0.9465   61.7153 H       1  ZINC000540473851    0.0500
     12 C12        -8.5883    0.1891   61.9803 C.3     1  ZINC000540473851   -0.1400
     13 C13       -10.2126   -0.5798   60.2717 C.ar    1  ZINC000540473851   -0.0500
     14 C14       -11.5344   -0.6878   59.8824 C.ar    1  ZINC000540473851   -0.1000
     15 C15       -11.9486   -1.7717   59.1305 C.ar    1  ZINC000540473851   -0.0900
     16 C16       -11.0412   -2.7484   58.7674 C.ar    1  ZINC000540473851   -0.1500
     17 C17        -9.7164   -2.6411   59.1564 C.ar    1  ZINC000540473851    0.1000
     18 F18        -8.8284   -3.5954   58.8019 F       1  ZINC000540473851   -0.1400
     19 C19        -9.3019   -1.5526   59.9047 C.ar    1  ZINC000540473851   -0.1500
     20 C20        -8.7423    1.1513   58.9653 C.3     1  ZINC000540473851    0.0400
     21 C21        -8.1582    2.2988   58.1428 C.3     1  ZINC000540473851    0.1200
     22 S22        -7.2456    3.9618   54.8888 S.3     1  ZINC000540473851    0.2800
     23 C23        -7.2107    2.7570   53.6769 C.2     1  ZINC000540473851    0.0800
     24 C24        -6.1679    2.6402   52.6338 C.ar    1  ZINC000540473851    0.3800
     25 N25        -4.9593    3.1355   52.8676 N.ar    1  ZINC000540473851   -0.5100
     26 C26        -4.0058    3.0477   51.9573 C.ar    1  ZINC000540473851    0.1600
     27 C27        -4.2809    2.4288   50.7463 C.ar    1  ZINC000540473851   -0.2100
     28 C28        -5.5549    1.9217   50.5345 C.ar    1  ZINC000540473851    0.1500
     29 N29        -6.4617    2.0377   51.4886 N.ar    1  ZINC000540473851   -0.4700
     30 N30        -8.2272    1.9524   53.8038 N.2     1  ZINC000540473851   -0.4300
     31 H31       -10.0285    0.5400   55.7213 H       1  ZINC000540473851    0.0900
     32 H32       -11.0669    1.9650   55.4780 H       1  ZINC000540473851    0.0800
     33 H33       -10.6421    0.9270   54.0959 H       1  ZINC000540473851    0.0800
     34 H34        -9.2813    4.3877   59.7434 H       1  ZINC000540473851    0.0900
     35 H35       -10.7852    4.4106   58.7852 H       1  ZINC000540473851    0.0900
     36 H36       -10.9181    2.9243   60.8247 H       1  ZINC000540473851    0.1000
     37 H37       -11.2036    2.0571   59.2961 H       1  ZINC000540473851    0.0400
     38 H38        -7.7637   -0.1551   61.3562 H       1  ZINC000540473851    0.0700
     39 H39        -8.2631    1.0441   62.5731 H       1  ZINC000540473851    0.0600
     40 H40        -8.9015   -0.6159   62.6452 H       1  ZINC000540473851    0.0600
     41 H41       -12.2446    0.0750   60.1661 H       1  ZINC000540473851    0.1400
     42 H42       -12.9818   -1.8552   58.8272 H       1  ZINC000540473851    0.1300
     43 H43       -11.3650   -3.5953   58.1807 H       1  ZINC000540473851    0.1300
     44 H44        -8.2690   -1.4677   60.2084 H       1  ZINC000540473851    0.1300
     45 H45        -7.9511    0.4472   59.2227 H       1  ZINC000540473851    0.1000
     46 H46        -9.5078    0.6413   58.3805 H       1  ZINC000540473851    0.0400
     47 H47        -7.8161    1.9216   57.1792 H       1  ZINC000540473851    0.1000
     48 H48        -7.3232    2.7472   58.6812 H       1  ZINC000540473851    0.0800
     49 H49        -3.0241    3.4531   52.1532 H       1  ZINC000540473851    0.1800
     50 H50        -3.5198    2.3439   49.9847 H       1  ZINC000540473851    0.1600
     51 H51        -5.8013    1.4343   49.6029 H       1  ZINC000540473851    0.1800
@<TRIPOS>BOND
     1     1     2    1
     2     1    31    1
     3     1    32    1
     4     1    33    1
     5     2    30    1
     6     2     3    2
     7     3     4    1
     8     3    22    1
     9     4     5    2
    10     4     6   am
    11     6    21    1
    12     6     7    1
    13     7     8    1
    14     7    34    1
    15     7    35    1
    16     8     9    1
    17     8    36    1
    18     8    37    1
    19     9    10    1
    20     9    20    1
    21    10    11    1
    22    10    12    1
    23    10    13    1
    24    12    38    1
    25    12    39    1
    26    12    40    1
    27    13    19   ar
    28    13    14   ar
    29    14    15   ar
    30    14    41    1
    31    15    16   ar
    32    15    42    1
    33    16    17   ar
    34    16    43    1
    35    17    18    1
    36    17    19   ar
    37    19    44    1
    38    20    21    1
    39    20    45    1
    40    20    46    1
    41    21    47    1
    42    21    48    1
    43    22    23    1
    44    23    24    1
    45    23    30    2
    46    24    29   ar
    47    24    25   ar
    48    25    26   ar
    49    26    27   ar
    50    26    49    1
    51    27    28   ar
    52    27    50    1
    53    28    29   ar
    54    28    51    1
@<TRIPOS>SUBSTRUCTURE
     1 ZINC000540473851        1 TEMP              0 ****  ****    0 ROOT


##########                                Name:    ZINC000517001504
##########                DOCK_Rotatable_Bonds:                   5
##########                         Heavy_Atoms:                  29
##########                    Molecular_Weight:             403.401
##########                DOCK_Rotatable_Bonds:                   5
##########                       Formal_Charge:          -0.0200002
##########                     HBond_Acceptors:                   7
##########                        HBond_Donors:                   0
##########                         Heavy_Atoms:                  29
##########                          Grid_Score:          -24.512344
##########                     Grid_vdw_energy:          -24.179342
##########                      Grid_es_energy:           -0.333001
##########           Internal_energy_repulsive:           33.394398

@<TRIPOS>MOLECULE
ZINC000517001504
 49 52 1 0 0
SMALL
USER_CHARGES


@<TRIPOS>ATOM
      1 O1         -8.7890   -0.5767   53.1125 O.2     1  ZINC000517001504   -0.5200
      2 C2         -9.4116    0.4479   53.2961 C.2     1  ZINC000517001504    0.5400
      3 N3         -8.7825    1.6384   53.2377 N.am    1  ZINC000517001504   -0.6100
      4 C4         -9.5180    2.8950   53.4510 C.3     1  ZINC000517001504    0.0600
      5 C5         -9.1946    3.8469   52.2938 C.3     1  ZINC000517001504    0.0500
      6 O6         -7.7758    3.9570   52.1573 O.3     1  ZINC000517001504   -0.3700
      7 C7         -7.1227    2.7292   51.8259 C.3     1  ZINC000517001504    0.1200
      8 H8         -7.5404    2.3329   50.9004 H       1  ZINC000517001504    0.0800
      9 C9         -5.6469    2.9765   51.6468 C.ar    1  ZINC000517001504   -0.0600
     10 C10        -4.9217    3.5889   52.6518 C.ar    1  ZINC000517001504   -0.0900
     11 C11        -3.5681    3.8157   52.4874 C.ar    1  ZINC000517001504   -0.0700
     12 C12        -2.9395    3.4298   51.3183 C.ar    1  ZINC000517001504   -0.1800
     13 C13        -1.4638    3.6775   51.1389 C.3     1  ZINC000517001504    0.5100
     14 F14        -0.9379    2.7359   50.2478 F       1  ZINC000517001504   -0.1800
     15 F15        -1.2658    4.9646   50.6280 F       1  ZINC000517001504   -0.1800
     16 F16        -0.8180    3.5617   52.3745 F       1  ZINC000517001504   -0.1800
     17 C17        -3.6644    2.8162   50.3138 C.ar    1  ZINC000517001504   -0.0700
     18 C18        -5.0174    2.5859   50.4798 C.ar    1  ZINC000517001504   -0.1000
     19 C19        -7.3389    1.7197   52.9648 C.3     1  ZINC000517001504    0.0900
     20 C20       -10.8898    0.3900   53.5834 C.3     1  ZINC000517001504   -0.0600
     21 C21       -11.7284    0.9202   52.4491 C.ar    1  ZINC000517001504   -0.0700
     22 C22       -11.7124    0.2844   51.2218 C.ar    1  ZINC000517001504   -0.1200
     23 C23       -12.4818    0.7708   50.1814 C.ar    1  ZINC000517001504   -0.1100
     24 C24       -13.2675    1.8926   50.3684 C.ar    1  ZINC000517001504   -0.1100
     25 C25       -13.2841    2.5278   51.5961 C.ar    1  ZINC000517001504   -0.1100
     26 C26       -12.5182    2.0389   52.6377 C.ar    1  ZINC000517001504   -0.1000
     27 C27       -11.3618   -0.9730   54.1182 C.3     1  ZINC000517001504   -0.1600
     28 C28       -11.0707   -0.4333   55.5044 C.2     1  ZINC000517001504    0.3600
     29 O29       -10.7953   -0.9107   56.5788 O.2     1  ZINC000517001504   -0.4100
     30 C30       -11.2747    0.9656   54.9572 C.3     1  ZINC000517001504   -0.1900
     31 H31       -10.5892    2.6942   53.4729 H       1  ZINC000517001504    0.1000
     32 H32        -9.2091    3.3455   54.3942 H       1  ZINC000517001504    0.0800
     33 H33        -9.6198    3.4546   51.3700 H       1  ZINC000517001504    0.0600
     34 H34        -9.6178    4.8296   52.5016 H       1  ZINC000517001504    0.1100
     35 H35        -5.4128    3.8904   53.5652 H       1  ZINC000517001504    0.1400
     36 H36        -3.0016    4.2948   53.2723 H       1  ZINC000517001504    0.1400
     37 H37        -3.1732    2.5143   49.4006 H       1  ZINC000517001504    0.1400
     38 H38        -5.5837    2.1065   49.6950 H       1  ZINC000517001504    0.1400
     39 H39        -6.8093    2.0539   53.8569 H       1  ZINC000517001504    0.0800
     40 H40        -6.9682    0.7403   52.6624 H       1  ZINC000517001504    0.1100
     41 H41       -11.0985   -0.5920   51.0756 H       1  ZINC000517001504    0.1300
     42 H42       -12.4686    0.2745   49.2222 H       1  ZINC000517001504    0.1300
     43 H43       -13.8679    2.2730   49.5554 H       1  ZINC000517001504    0.1300
     44 H44       -13.8978    3.4045   51.7422 H       1  ZINC000517001504    0.1300
     45 H45       -12.5313    2.5352   53.5969 H       1  ZINC000517001504    0.1200
     46 H46       -12.4186   -1.1713   53.9388 H       1  ZINC000517001504    0.1300
     47 H47       -10.7183   -1.8036   53.8280 H       1  ZINC000517001504    0.1100
     48 H48       -10.5610    1.6942   55.3418 H       1  ZINC000517001504    0.1000
     49 H49       -12.3069    1.3112   55.0133 H       1  ZINC000517001504    0.1400
@<TRIPOS>BOND
     1     1     2    2
     2     2     3   am
     3     2    20    1
     4     3    19    1
     5     3     4    1
     6     4     5    1
     7     4    31    1
     8     4    32    1
     9     5     6    1
    10     5    33    1
    11     5    34    1
    12     6     7    1
    13     7     8    1
    14     7     9    1
    15     7    19    1
    16     9    18   ar
    17     9    10   ar
    18    10    11   ar
    19    10    35    1
    20    11    12   ar
    21    11    36    1
    22    12    13    1
    23    12    17   ar
    24    13    14    1
    25    13    15    1
    26    13    16    1
    27    17    18   ar
    28    17    37    1
    29    18    38    1
    30    19    39    1
    31    19    40    1
    32    20    30    1
    33    20    21    1
    34    20    27    1
    35    21    26   ar
    36    21    22   ar
    37    22    23   ar
    38    22    41    1
    39    23    24   ar
    40    23    42    1
    41    24    25   ar
    42    24    43    1
    43    25    26   ar
    44    25    44    1
    45    26    45    1
    46    27    28    1
    47    27    46    1
    48    27    47    1
    49    28    29    2
    50    28    30    1
    51    30    48    1
    52    30    49    1
@<TRIPOS>SUBSTRUCTURE
     1 ZINC000517001504        1 TEMP              0 ****  ****    0 ROOT


##########                                Name:    ZINC000566738344
##########                DOCK_Rotatable_Bonds:                   5
##########                         Heavy_Atoms:                  23
##########                    Molecular_Weight:             352.478
##########                DOCK_Rotatable_Bonds:                   5
##########                       Formal_Charge:           0.0100005
##########                     HBond_Acceptors:                   7
##########                        HBond_Donors:                   0
##########                         Heavy_Atoms:                  23
##########                          Grid_Score:          -24.509523
##########                     Grid_vdw_energy:          -24.524923
##########                      Grid_es_energy:            0.015399
##########           Internal_energy_repulsive:           14.658123

@<TRIPOS>MOLECULE
ZINC000566738344
 43 44 1 0 0
SMALL
USER_CHARGES


@<TRIPOS>ATOM
      1 C1         -8.2075    3.9570   51.2728 C.3     1  ZINC000566738344   -0.1300
      2 C2         -8.4278    2.5725   51.8256 C.ar    1  ZINC000566738344   -0.0100
      3 C3         -9.6016    2.2695   52.4763 C.ar    1  ZINC000566738344   -0.1000
      4 C4         -9.8057    0.9903   52.9879 C.ar    1  ZINC000566738344   -0.0500
      5 S5        -11.3101    0.6065   53.8211 S.3     1  ZINC000566738344   -0.0300
      6 C6        -10.7390   -0.0513   55.4123 C.3     1  ZINC000566738344   -0.1200
      7 H7        -10.1789   -0.9713   55.2453 H       1  ZINC000566738344    0.1200
      8 C8         -9.8368    0.9782   56.0955 C.3     1  ZINC000566738344   -0.1300
      9 C9        -11.9279   -0.3399   56.2924 C.2     1  ZINC000566738344    0.5200
     10 O10       -12.3308    0.5050   57.0636 O.2     1  ZINC000566738344   -0.5000
     11 N11       -12.5434   -1.5368   56.2223 N.am    1  ZINC000566738344   -0.6000
     12 C12       -12.0557   -2.5580   55.2921 C.3     1  ZINC000566738344    0.0600
     13 C13       -13.7002   -1.8167   57.0766 C.3     1  ZINC000566738344    0.1500
     14 H14       -13.7420   -1.0889   57.8869 H       1  ZINC000566738344    0.1300
     15 C15       -14.9908   -1.7367   56.2423 C.3     1  ZINC000566738344   -0.1300
     16 C16       -16.1173   -2.3588   57.1073 C.3     1  ZINC000566738344   -0.5900
     17 S17       -15.3002   -3.8341   57.8251 S.o2    1  ZINC000566738344    2.4000
     18 O18       -15.6370   -3.9358   59.2018 O.2     1  ZINC000566738344   -0.9300
     19 O19       -15.4975   -4.9473   56.9641 O.2     1  ZINC000566738344   -0.9300
     20 C20       -13.5805   -3.2378   57.6619 C.3     1  ZINC000566738344   -0.6200
     21 C21        -8.8237    0.0140   52.8421 C.ar    1  ZINC000566738344   -0.1400
     22 C22        -7.6475    0.3108   52.1923 C.ar    1  ZINC000566738344   -0.0400
     23 C23        -7.4417    1.5926   51.6729 C.ar    1  ZINC000566738344   -0.0400
     24 C24        -6.2188    1.9046   50.9961 C.1     1  ZINC000566738344    0.2500
     25 N25        -5.2487    2.1523   50.4592 N.1     1  ZINC000566738344   -0.4100
     26 H26        -8.5787    4.0027   50.2490 H       1  ZINC000566738344    0.0800
     27 H27        -8.7424    4.6823   51.8859 H       1  ZINC000566738344    0.0800
     28 H28        -7.1422    4.1873   51.2837 H       1  ZINC000566738344    0.0700
     29 H29       -10.3653    3.0245   52.5908 H       1  ZINC000566738344    0.1400
     30 H30       -10.4200    1.8654   56.3427 H       1  ZINC000566738344    0.0800
     31 H31        -9.4228    0.5497   57.0083 H       1  ZINC000566738344    0.0800
     32 H32        -9.0248    1.2532   55.4225 H       1  ZINC000566738344    0.0900
     33 H33       -11.3084   -3.1759   55.7900 H       1  ZINC000566738344    0.0700
     34 H34       -12.8882   -3.1834   54.9700 H       1  ZINC000566738344    0.0800
     35 H35       -11.6074   -2.0744   54.4241 H       1  ZINC000566738344    0.0800
     36 H36       -15.2252   -0.6965   56.0162 H       1  ZINC000566738344    0.1100
     37 H37       -14.8737   -2.3029   55.3183 H       1  ZINC000566738344    0.0900
     38 H38       -16.4286   -1.6689   57.8915 H       1  ZINC000566738344    0.1400
     39 H39       -16.9653   -2.6495   56.4872 H       1  ZINC000566738344    0.1400
     40 H40       -13.0193   -3.8817   56.9847 H       1  ZINC000566738344    0.1400
     41 H41       -13.0980   -3.2024   58.6387 H       1  ZINC000566738344    0.1500
     42 H42        -8.9852   -0.9771   53.2397 H       1  ZINC000566738344    0.1200
     43 H43        -6.8860   -0.4468   52.0798 H       1  ZINC000566738344    0.1400
@<TRIPOS>BOND
     1     1     2    1
     2     1    26    1
     3     1    27    1
     4     1    28    1
     5     2    23   ar
     6     2     3   ar
     7     3     4   ar
     8     3    29    1
     9     4     5    1
    10     4    21   ar
    11     5     6    1
    12     6     7    1
    13     6     8    1
    14     6     9    1
    15     8    30    1
    16     8    31    1
    17     8    32    1
    18     9    10    2
    19     9    11   am
    20    11    12    1
    21    11    13    1
    22    12    33    1
    23    12    34    1
    24    12    35    1
    25    13    14    1
    26    13    20    1
    27    13    15    1
    28    15    16    1
    29    15    36    1
    30    15    37    1
    31    16    17    1
    32    16    38    1
    33    16    39    1
    34    17    18    2
    35    17    19    2
    36    17    20    1
    37    20    40    1
    38    20    41    1
    39    21    22   ar
    40    21    42    1
    41    22    23   ar
    42    22    43    1
    43    23    24    1
    44    24    25    3
@<TRIPOS>SUBSTRUCTURE
     1 ZINC000566738344        1 TEMP              0 ****  ****    0 ROOT


##########                                Name:    ZINC000579444893
##########                DOCK_Rotatable_Bonds:                   8
##########                         Heavy_Atoms:                  26
##########                    Molecular_Weight:             365.494
##########                DOCK_Rotatable_Bonds:                   8
##########                       Formal_Charge:         -0.00999993
##########                     HBond_Acceptors:                   7
##########                        HBond_Donors:                   1
##########                         Heavy_Atoms:                  26
##########                          Grid_Score:          -24.492241
##########                     Grid_vdw_energy:          -22.682751
##########                      Grid_es_energy:           -1.809490
##########           Internal_energy_repulsive:           27.384678

@<TRIPOS>MOLECULE
ZINC000579444893
 58 60 1 0 0
SMALL
USER_CHARGES


@<TRIPOS>ATOM
      1 C1        -10.0810   -1.5526   59.7998 C.3     1  ZINC000579444893   -0.1600
      2 C2         -9.3325   -0.2185   59.8290 C.3     1  ZINC000579444893    0.1700
      3 H3         -8.2691   -0.4017   59.9822 H       1  ZINC000579444893    0.0900
      4 N4         -9.5293    0.4798   58.5563 N.am    1  ZINC000579444893   -0.7400
      5 C5         -8.4702    0.9872   57.8951 C.2     1  ZINC000579444893    0.7100
      6 O6         -7.3514    0.8667   58.3558 O.2     1  ZINC000579444893   -0.5900
      7 N7         -8.6511    1.6281   56.7234 N.am    1  ZINC000579444893   -0.6300
      8 C8         -9.9992    1.7748   56.1693 C.3     1  ZINC000579444893    0.0800
      9 C9         -7.4996    2.1781   56.0039 C.3     1  ZINC000579444893    0.1100
     10 C10        -6.9946    3.4273   56.7287 C.3     1  ZINC000579444893    0.0600
     11 H11        -6.7568    3.1844   57.7643 H       1  ZINC000579444893    0.1000
     12 C12        -8.0709    4.5323   56.6825 C.3     1  ZINC000579444893   -0.1600
     13 C13        -7.2368    5.8245   56.4795 C.3     1  ZINC000579444893    0.0800
     14 H14        -6.8431    6.1883   57.4285 H       1  ZINC000579444893    0.1000
     15 F15        -7.9927    6.8138   55.8413 F       1  ZINC000579444893   -0.2000
     16 C16        -6.0953    5.3192   55.5623 C.3     1  ZINC000579444893    0.0200
     17 N17        -5.7960    3.9518   56.0486 N.3     1  ZINC000579444893   -0.5000
     18 C18        -5.3937    3.0753   54.9405 C.3     1  ZINC000579444893    0.1000
     19 C19        -4.2106    3.6776   54.2276 C.2     1  ZINC000579444893    0.0800
     20 C20        -4.2128    4.2005   52.9795 C.2     1  ZINC000579444893   -0.2500
     21 C21        -2.9184    4.6504   52.6991 C.2     1  ZINC000579444893    0.0400
     22 N22        -2.1662    4.4063   53.7414 N.2     1  ZINC000579444893   -0.2900
     23 N23        -2.9605    3.7974   54.7215 N.pl3   1  ZINC000579444893   -0.3700
     24 C24        -2.5113    3.3594   56.0454 C.3     1  ZINC000579444893    0.0900
     25 C25        -9.8713    0.6437   60.9724 C.3     1  ZINC000579444893   -0.1000
     26 C26        -9.5528   -0.0093   62.3403 C.3     1  ZINC000579444893   -0.1200
     27 C27        -9.5902    1.1966   63.3116 C.3     1  ZINC000579444893   -0.1300
     28 C28        -8.9572    2.3504   62.5069 C.3     1  ZINC000579444893   -0.1300
     29 C29        -9.1358    1.9989   61.0196 C.3     1  ZINC000579444893   -0.1200
     30 H30        -9.7624   -2.1290   58.9313 H       1  ZINC000579444893    0.0600
     31 H31        -9.8603   -2.1129   60.7085 H       1  ZINC000579444893    0.0700
     32 H32       -11.1532   -1.3665   59.7391 H       1  ZINC000579444893    0.0500
     33 H33       -10.4220    0.5769   58.1894 H       1  ZINC000579444893    0.4000
     34 H34       -10.4788    2.6502   56.6072 H       1  ZINC000579444893    0.0600
     35 H35        -9.9363    1.8977   55.0880 H       1  ZINC000579444893    0.0800
     36 H36       -10.5858    0.8856   56.4003 H       1  ZINC000579444893    0.0700
     37 H37        -6.7047    1.4333   55.9669 H       1  ZINC000579444893    0.0900
     38 H38        -7.7975    2.4423   54.9893 H       1  ZINC000579444893    0.0900
     39 H39        -8.7487    4.3752   55.8436 H       1  ZINC000579444893    0.1100
     40 H40        -8.6219    4.5729   57.6221 H       1  ZINC000579444893    0.0800
     41 H41        -6.4271    5.2901   54.5244 H       1  ZINC000579444893    0.0600
     42 H42        -5.2171    5.9569   55.6630 H       1  ZINC000579444893    0.0900
     43 H43        -5.1213    2.0955   55.3328 H       1  ZINC000579444893    0.1100
     44 H44        -6.2235    2.9690   54.2417 H       1  ZINC000579444893    0.0500
     45 H45        -5.0636    4.2597   52.3168 H       1  ZINC000579444893    0.1500
     46 H46        -2.5957    5.1180   51.7806 H       1  ZINC000579444893    0.1800
     47 H47        -2.6847    4.1553   56.7696 H       1  ZINC000579444893    0.0800
     48 H48        -3.0678    2.4705   56.3422 H       1  ZINC000579444893    0.0800
     49 H49        -1.4470    3.1266   56.0093 H       1  ZINC000579444893    0.0900
     50 H50       -10.9449    0.7960   60.8609 H       1  ZINC000579444893    0.0800
     51 H51       -10.3145   -0.7425   62.6051 H       1  ZINC000579444893    0.0700
     52 H52        -8.5631   -0.4657   62.3293 H       1  ZINC000579444893    0.0700
     53 H53       -10.6186    1.4382   63.5803 H       1  ZINC000579444893    0.0700
     54 H54        -9.0013    0.9859   64.2043 H       1  ZINC000579444893    0.0700
     55 H55        -9.4668    3.2871   62.7331 H       1  ZINC000579444893    0.0600
     56 H56        -7.8970    2.4346   62.7458 H       1  ZINC000579444893    0.0600
     57 H57        -8.1625    1.9124   60.5367 H       1  ZINC000579444893    0.0600
     58 H58        -9.7323    2.7649   60.5239 H       1  ZINC000579444893    0.0600
@<TRIPOS>BOND
     1     1     2    1
     2     1    30    1
     3     1    31    1
     4     1    32    1
     5     2     3    1
     6     2     4    1
     7     2    25    1
     8     4     5   am
     9     4    33    1
    10     5     6    2
    11     5     7   am
    12     7     8    1
    13     7     9    1
    14     8    34    1
    15     8    35    1
    16     8    36    1
    17     9    10    1
    18     9    37    1
    19     9    38    1
    20    10    11    1
    21    10    17    1
    22    10    12    1
    23    12    13    1
    24    12    39    1
    25    12    40    1
    26    13    14    1
    27    13    15    1
    28    13    16    1
    29    16    17    1
    30    16    41    1
    31    16    42    1
    32    17    18    1
    33    18    19    1
    34    18    43    1
    35    18    44    1
    36    19    23    1
    37    19    20    2
    38    20    21    1
    39    20    45    1
    40    21    22    2
    41    21    46    1
    42    22    23    1
    43    23    24    1
    44    24    47    1
    45    24    48    1
    46    24    49    1
    47    25    29    1
    48    25    26    1
    49    25    50    1
    50    26    27    1
    51    26    51    1
    52    26    52    1
    53    27    28    1
    54    27    53    1
    55    27    54    1
    56    28    29    1
    57    28    55    1
    58    28    56    1
    59    29    57    1
    60    29    58    1
@<TRIPOS>SUBSTRUCTURE
     1 ZINC000579444893        1 TEMP              0 ****  ****    0 ROOT


##########                                Name:    ZINC000464867530
##########                DOCK_Rotatable_Bonds:                   8
##########                         Heavy_Atoms:                  30
##########                    Molecular_Weight:              422.49
##########                DOCK_Rotatable_Bonds:                   8
##########                       Formal_Charge:         -0.00999994
##########                     HBond_Acceptors:                   7
##########                        HBond_Donors:                   0
##########                         Heavy_Atoms:                  30
##########                          Grid_Score:          -24.459068
##########                     Grid_vdw_energy:          -24.532078
##########                      Grid_es_energy:            0.073010
##########           Internal_energy_repulsive:           31.138250

@<TRIPOS>MOLECULE
ZINC000464867530
 59 62 1 0 0
SMALL
USER_CHARGES


@<TRIPOS>ATOM
      1 C1        -14.8315   -2.6820   61.4214 C.3     1  ZINC000464867530   -0.1500
      2 C2        -13.8122   -2.1953   60.3893 C.3     1  ZINC000464867530   -0.1400
      3 C3        -14.5474   -1.6816   59.1497 C.3     1  ZINC000464867530    0.0900
      4 N4        -13.5708   -1.2913   58.1297 N.am    1  ZINC000464867530   -0.6100
      5 C5        -13.0697   -2.2851   57.1771 C.3     1  ZINC000464867530    0.0700
      6 C6        -14.0567   -2.4219   56.0160 C.3     1  ZINC000464867530    0.4300
      7 F7        -14.1558   -1.2000   55.3419 F       1  ZINC000464867530   -0.1700
      8 F8        -13.6032   -3.4068   55.1321 F       1  ZINC000464867530   -0.1800
      9 F9        -15.3135   -2.7838   56.5126 F       1  ZINC000464867530   -0.1800
     10 C10       -13.1337   -0.0179   58.0676 C.2     1  ZINC000464867530    0.5300
     11 O11       -13.5487    0.8048   58.8563 O.2     1  ZINC000464867530   -0.5100
     12 C12       -12.1291    0.3837   57.0185 C.3     1  ZINC000464867530   -0.1200
     13 H13       -12.2100   -0.2860   56.1622 H       1  ZINC000464867530    0.1000
     14 C14       -10.7175    0.2971   57.6031 C.3     1  ZINC000464867530   -0.1200
     15 C15        -9.6946    0.6731   56.5288 C.3     1  ZINC000464867530   -0.1300
     16 C16        -9.9426    2.1153   56.0756 C.3     1  ZINC000464867530    0.1000
     17 N17       -11.3423    2.2422   55.6471 N.am    1  ZINC000464867530   -0.6100
     18 C18       -11.6457    2.7342   54.4295 C.2     1  ZINC000464867530    0.5500
     19 O19       -12.8050    2.8354   54.0880 O.2     1  ZINC000464867530   -0.5300
     20 C20       -10.5444    3.1586   53.4925 C.3     1  ZINC000464867530   -0.1700
     21 H21        -9.7644    3.7792   53.9338 H       1  ZINC000464867530    0.1300
     22 C22       -10.9219    3.4284   52.0332 C.3     1  ZINC000464867530   -0.1300
     23 C23       -10.1307    2.1776   52.4018 C.3     1  ZINC000464867530   -0.0600
     24 C24       -10.7629    0.7789   52.3089 C.3     1  ZINC000464867530   -0.0900
     25 C25        -9.5428   -0.1457   52.5157 C.3     1  ZINC000464867530   -0.0800
     26 C26        -8.3475    0.6656   52.0619 C.ar    1  ZINC000464867530   -0.0900
     27 C27        -7.0647    0.2642   51.7313 C.ar    1  ZINC000464867530   -0.1100
     28 C28        -6.1229    1.1957   51.3394 C.ar    1  ZINC000464867530   -0.1100
     29 C29        -6.4618    2.5341   51.2768 C.ar    1  ZINC000464867530   -0.1200
     30 C30        -7.7413    2.9374   51.6060 C.ar    1  ZINC000464867530   -0.1000
     31 C31        -8.6875    2.0060   51.9988 C.ar    1  ZINC000464867530   -0.0700
     32 C32       -12.4053    1.8223   56.5703 C.3     1  ZINC000464867530    0.1300
     33 H33       -15.4859   -1.8570   61.7029 H       1  ZINC000464867530    0.0600
     34 H34       -15.4268   -3.4878   60.9921 H       1  ZINC000464867530    0.0600
     35 H35       -14.3078   -3.0479   62.3046 H       1  ZINC000464867530    0.0600
     36 H36       -13.2169   -1.3895   60.8186 H       1  ZINC000464867530    0.0700
     37 H37       -13.1579   -3.0203   60.1079 H       1  ZINC000464867530    0.0700
     38 H38       -15.1893   -2.4693   58.7555 H       1  ZINC000464867530    0.0900
     39 H39       -15.1556   -0.8183   59.4196 H       1  ZINC000464867530    0.0900
     40 H40       -12.1005   -1.9651   56.7944 H       1  ZINC000464867530    0.1300
     41 H41       -12.9627   -3.2472   57.6783 H       1  ZINC000464867530    0.1200
     42 H42       -10.6300    0.9848   58.4444 H       1  ZINC000464867530    0.0800
     43 H43       -10.5278   -0.7204   57.9450 H       1  ZINC000464867530    0.0800
     44 H44        -8.6883    0.5887   56.9391 H       1  ZINC000464867530    0.0900
     45 H45        -9.7982    0.0012   55.6768 H       1  ZINC000464867530    0.0700
     46 H46        -9.7510    2.7968   56.9044 H       1  ZINC000464867530    0.0700
     47 H47        -9.2822    2.3553   55.2425 H       1  ZINC000464867530    0.0900
     48 H48       -11.9668    3.2989   51.7513 H       1  ZINC000464867530    0.1100
     49 H49       -10.3898    4.2259   51.5146 H       1  ZINC000464867530    0.1100
     50 H50       -11.4992    0.6325   53.0993 H       1  ZINC000464867530    0.0700
     51 H51       -11.2090    0.6191   51.3272 H       1  ZINC000464867530    0.0800
     52 H52        -9.4428   -0.4097   53.5685 H       1  ZINC000464867530    0.0800
     53 H53        -9.6423   -1.0447   51.9075 H       1  ZINC000464867530    0.0800
     54 H54        -6.7990   -0.7815   51.7804 H       1  ZINC000464867530    0.1200
     55 H55        -5.1230    0.8785   51.0825 H       1  ZINC000464867530    0.1300
     56 H56        -5.7269    3.2641   50.9712 H       1  ZINC000464867530    0.1300
     57 H57        -8.0046    3.9837   51.5571 H       1  ZINC000464867530    0.1200
     58 H58       -13.3692    1.8693   56.0635 H       1  ZINC000464867530    0.1000
     59 H59       -12.4149    2.4797   57.4398 H       1  ZINC000464867530    0.0800
@<TRIPOS>BOND
     1     1     2    1
     2     1    33    1
     3     1    34    1
     4     1    35    1
     5     2     3    1
     6     2    36    1
     7     2    37    1
     8     3     4    1
     9     3    38    1
    10     3    39    1
    11     4     5    1
    12     4    10   am
    13     5     6    1
    14     5    40    1
    15     5    41    1
    16     6     7    1
    17     6     8    1
    18     6     9    1
    19    10    11    2
    20    10    12    1
    21    12    13    1
    22    12    32    1
    23    12    14    1
    24    14    15    1
    25    14    42    1
    26    14    43    1
    27    15    16    1
    28    15    44    1
    29    15    45    1
    30    16    17    1
    31    16    46    1
    32    16    47    1
    33    17    18   am
    34    17    32    1
    35    18    19    2
    36    18    20    1
    37    20    21    1
    38    20    23    1
    39    20    22    1
    40    22    23    1
    41    22    48    1
    42    22    49    1
    43    23    31    1
    44    23    24    1
    45    24    25    1
    46    24    50    1
    47    24    51    1
    48    25    26    1
    49    25    52    1
    50    25    53    1
    51    26    31   ar
    52    26    27   ar
    53    27    28   ar
    54    27    54    1
    55    28    29   ar
    56    28    55    1
    57    29    30   ar
    58    29    56    1
    59    30    31   ar
    60    30    57    1
    61    32    58    1
    62    32    59    1
@<TRIPOS>SUBSTRUCTURE
     1 ZINC000464867530        1 TEMP              0 ****  ****    0 ROOT


##########                                Name:    ZINC001231746020
##########                DOCK_Rotatable_Bonds:                   3
##########                         Heavy_Atoms:                  19
##########                    Molecular_Weight:             348.667
##########                DOCK_Rotatable_Bonds:                   3
##########                       Formal_Charge:          -0.0399997
##########                     HBond_Acceptors:                   4
##########                        HBond_Donors:                   2
##########                         Heavy_Atoms:                  19
##########                          Grid_Score:          -24.450321
##########                     Grid_vdw_energy:          -18.903742
##########                      Grid_es_energy:           -5.546579
##########           Internal_energy_repulsive:           10.149376

@<TRIPOS>MOLECULE
ZINC001231746020
 38 39 1 0 0
SMALL
USER_CHARGES


@<TRIPOS>ATOM
      1 C1         -9.1594    2.1226   58.7044 C.3     1  ZINC001231746020   -0.1500
      2 C2         -9.8288    0.9410   59.4090 C.3     1  ZINC001231746020   -0.0900
      3 H3        -10.7145    1.2874   59.9417 H       1  ZINC001231746020    0.0800
      4 C4        -10.2253   -0.0946   58.3910 C.3     1  ZINC001231746020   -0.1400
      5 C5        -11.4888   -0.8841   58.7781 C.3     1  ZINC001231746020   -0.0100
      6 N6        -11.5229   -1.2840   60.2013 N.4     1  ZINC001231746020   -0.3800
      7 H7        -11.8010   -0.4903   60.7588 H       1  ZINC001231746020    0.4100
      8 C8        -12.5107   -2.3576   60.3726 C.3     1  ZINC001231746020    0.0700
      9 C9        -13.8936   -1.8120   60.1260 C.ar    1  ZINC001231746020   -0.3100
     10 C10       -14.4073   -0.8332   60.9562 C.ar    1  ZINC001231746020   -0.0300
     11 C11       -15.6757   -0.3305   60.7320 C.ar    1  ZINC001231746020   -0.1600
     12 Cl12      -16.3201    0.8986   61.7750 Cl      1  ZINC001231746020   -0.0800
     13 C13       -16.4333   -0.8099   59.6726 C.ar    1  ZINC001231746020    0.3100
     14 O14       -17.6806   -0.3171   59.4496 O.3     1  ZINC001231746020   -0.6300
     15 C15       -15.9152   -1.7928   58.8412 C.ar    1  ZINC001231746020   -0.2100
     16 Br16      -16.9438   -2.4492   57.3964 Br      1  ZINC001231746020   -0.0600
     17 C17       -14.6442   -2.2873   59.0664 C.ar    1  ZINC001231746020   -0.0200
     18 C18       -10.2374   -1.7509   60.6606 C.3     1  ZINC001231746020   -0.0200
     19 C19        -9.5258   -0.5741   61.3476 C.3     1  ZINC001231746020   -0.1800
     20 C20        -8.8341    0.3026   60.4106 C.3     1  ZINC001231746020    0.1000
     21 H21        -8.3289    1.0928   60.9661 H       1  ZINC001231746020    0.0700
     22 O22        -7.8625   -0.4562   59.6879 O.3     1  ZINC001231746020   -0.5600
     23 H23        -9.8568    2.5633   57.9920 H       1  ZINC001231746020    0.0600
     24 H24        -8.2716    1.7751   58.1762 H       1  ZINC001231746020    0.0700
     25 H25        -8.8731    2.8713   59.4431 H       1  ZINC001231746020    0.0600
     26 H26       -10.4033    0.4032   57.4378 H       1  ZINC001231746020    0.1000
     27 H27        -9.4010   -0.7971   58.2683 H       1  ZINC001231746020    0.1000
     28 H28       -12.3631   -0.2682   58.5678 H       1  ZINC001231746020    0.1200
     29 H29       -11.5415   -1.7818   58.1623 H       1  ZINC001231746020    0.1200
     30 H30       -12.3040   -3.1583   59.6624 H       1  ZINC001231746020    0.1200
     31 H31       -12.4501   -2.7484   61.3883 H       1  ZINC001231746020    0.1200
     32 H32       -13.8172   -0.4607   61.7805 H       1  ZINC001231746020    0.1100
     33 H33       -14.2385   -3.0486   58.4165 H       1  ZINC001231746020    0.1100
     34 H34       -10.3735   -2.5657   61.3718 H       1  ZINC001231746020    0.1400
     35 H35        -9.6459   -2.0965   59.8128 H       1  ZINC001231746020    0.1300
     36 H36       -10.2649    0.0112   61.8947 H       1  ZINC001231746020    0.0900
     37 H37        -8.7986   -0.9698   62.0566 H       1  ZINC001231746020    0.1100
     38 H38        -7.0934   -0.7136   60.2144 H       1  ZINC001231746020    0.3900
@<TRIPOS>BOND
     1     1     2    1
     2     1    23    1
     3     1    24    1
     4     1    25    1
     5     2     3    1
     6     2    20    1
     7     2     4    1
     8     4     5    1
     9     4    26    1
    10     4    27    1
    11     5     6    1
    12     5    28    1
    13     5    29    1
    14     6     7    1
    15     6     8    1
    16     6    18    1
    17     8     9    1
    18     8    30    1
    19     8    31    1
    20     9    17   ar
    21     9    10   ar
    22    10    11   ar
    23    10    32    1
    24    11    12    1
    25    11    13   ar
    26    13    14    1
    27    13    15   ar
    28    15    16    1
    29    15    17   ar
    30    17    33    1
    31    18    19    1
    32    18    34    1
    33    18    35    1
    34    19    20    1
    35    19    36    1
    36    19    37    1
    37    20    21    1
    38    20    22    1
    39    22    38    1
@<TRIPOS>SUBSTRUCTURE
     1 ZINC001231746020        1 TEMP              0 ****  ****    0 ROOT


##########                                Name:    ZINC000939075213
##########                DOCK_Rotatable_Bonds:                   7
##########                         Heavy_Atoms:                  24
##########                    Molecular_Weight:             327.426
##########                DOCK_Rotatable_Bonds:                   7
##########                       Formal_Charge:          -0.0200002
##########                     HBond_Acceptors:                   5
##########                        HBond_Donors:                   2
##########                         Heavy_Atoms:                  24
##########                          Grid_Score:          -24.436424
##########                     Grid_vdw_energy:          -20.396276
##########                      Grid_es_energy:           -4.040148
##########           Internal_energy_repulsive:            8.025357

@<TRIPOS>MOLECULE
ZINC000939075213
 49 51 1 0 0
SMALL
USER_CHARGES


@<TRIPOS>ATOM
      1 C1        -12.8169    2.7178   64.5907 C.3     1  ZINC000939075213   -0.1400
      2 C2        -13.3311    2.3510   63.1972 C.3     1  ZINC000939075213   -0.1100
      3 H3        -13.2604    3.2024   62.5203 H       1  ZINC000939075213    0.0900
      4 C4        -14.7825    1.8141   63.2645 C.3     1  ZINC000939075213    0.1100
      5 N5        -14.9267    0.9650   62.0680 N.am    1  ZINC000939075213   -0.6200
      6 C6        -16.0883    0.6614   61.4556 C.2     1  ZINC000939075213    0.5600
      7 O7        -17.1382    1.1001   61.8893 O.2     1  ZINC000939075213   -0.5400
      8 C8        -16.0878   -0.1673   60.3083 C.2     1  ZINC000939075213   -0.2600
      9 C9        -15.7159   -1.4673   60.4112 C.2     1  ZINC000939075213    0.0400
     10 C10       -15.7154   -2.2971   59.2629 C.2     1  ZINC000939075213    0.0000
     11 C11       -15.7552   -1.8730   57.9474 C.2     1  ZINC000939075213   -0.1500
     12 C12       -15.7376   -3.0184   57.1461 C.2     1  ZINC000939075213   -0.2200
     13 C13       -15.6886   -4.0980   57.9635 C.2     1  ZINC000939075213    0.0200
     14 N14       -15.6691   -3.6732   59.2527 N.pl3   1  ZINC000939075213   -0.5000
     15 C15       -13.5934    0.5050   61.6529 C.3     1  ZINC000939075213    0.0900
     16 C16       -12.5701    1.1241   62.6289 C.3     1  ZINC000939075213    0.1400
     17 H17       -12.3228    0.4218   63.4250 H       1  ZINC000939075213    0.1100
     18 N18       -11.3609    1.5426   61.9155 N.am    1  ZINC000939075213   -0.7200
     19 C19       -10.4981    0.6173   61.4513 C.2     1  ZINC000939075213    0.5300
     20 O20       -10.7218   -0.5620   61.6255 O.2     1  ZINC000939075213   -0.5300
     21 C21        -9.2552    1.0478   60.7158 C.3     1  ZINC000939075213   -0.0600
     22 C22        -8.6285    2.2656   61.3978 C.3     1  ZINC000939075213   -0.1300
     23 C23        -8.2627   -0.0896   60.6486 C.2     1  ZINC000939075213   -0.1700
     24 C24        -7.7519   -0.1974   59.4523 C.2     1  ZINC000939075213   -0.1400
     25 C25        -8.3184    0.8500   58.5223 C.3     1  ZINC000939075213   -0.1100
     26 C26        -9.5864    1.3682   59.2397 C.3     1  ZINC000939075213   -0.1100
     27 H27       -11.7701    3.0147   64.5253 H       1  ZINC000939075213    0.0600
     28 H28       -13.4049    3.5450   64.9889 H       1  ZINC000939075213    0.0700
     29 H29       -12.9094    1.8555   65.2509 H       1  ZINC000939075213    0.0600
     30 H30       -14.9268    1.2229   64.1688 H       1  ZINC000939075213    0.0700
     31 H31       -15.4940    2.6391   63.2321 H       1  ZINC000939075213    0.0800
     32 H32       -16.3838    0.2356   59.3510 H       1  ZINC000939075213    0.1300
     33 H33       -15.4200   -1.8702   61.3686 H       1  ZINC000939075213    0.1500
     34 H34       -15.7932   -0.8499   57.6037 H       1  ZINC000939075213    0.1400
     35 H35       -15.7593   -3.0391   56.0666 H       1  ZINC000939075213    0.1400
     36 H36       -15.6652   -5.1287   57.6416 H       1  ZINC000939075213    0.1600
     37 H37       -15.6343   -4.2441   60.0361 H       1  ZINC000939075213    0.4100
     38 H38       -13.5440   -0.5827   61.7041 H       1  ZINC000939075213    0.0800
     39 H39       -13.3853    0.8402   60.6368 H       1  ZINC000939075213    0.0700
     40 H40       -11.1814    2.4858   61.7771 H       1  ZINC000939075213    0.4000
     41 H41        -8.3755    2.0150   62.4280 H       1  ZINC000939075213    0.0600
     42 H42        -7.7250    2.5571   60.8624 H       1  ZINC000939075213    0.0700
     43 H43        -9.3387    3.0924   61.3891 H       1  ZINC000939075213    0.0600
     44 H44        -8.0091   -0.7290   61.4811 H       1  ZINC000939075213    0.1300
     45 H45        -7.0200   -0.9378   59.1651 H       1  ZINC000939075213    0.1300
     46 H46        -7.6032    1.6607   58.3825 H       1  ZINC000939075213    0.0800
     47 H47        -8.5804    0.4041   57.5628 H       1  ZINC000939075213    0.0800
     48 H48       -10.4720    0.8245   58.9105 H       1  ZINC000939075213    0.0900
     49 H49        -9.7098    2.4408   59.0903 H       1  ZINC000939075213    0.0800
@<TRIPOS>BOND
     1     1     2    1
     2     1    27    1
     3     1    28    1
     4     1    29    1
     5     2     3    1
     6     2    16    1
     7     2     4    1
     8     4     5    1
     9     4    30    1
    10     4    31    1
    11     5     6   am
    12     5    15    1
    13     6     7    2
    14     6     8    1
    15     8     9    2
    16     8    32    1
    17     9    10    1
    18     9    33    1
    19    10    14    1
    20    10    11    2
    21    11    12    1
    22    11    34    1
    23    12    13    2
    24    12    35    1
    25    13    14    1
    26    13    36    1
    27    14    37    1
    28    15    16    1
    29    15    38    1
    30    15    39    1
    31    16    17    1
    32    16    18    1
    33    18    19   am
    34    18    40    1
    35    19    20    2
    36    19    21    1
    37    21    26    1
    38    21    22    1
    39    21    23    1
    40    22    41    1
    41    22    42    1
    42    22    43    1
    43    23    24    2
    44    23    44    1
    45    24    25    1
    46    24    45    1
    47    25    26    1
    48    25    46    1
    49    25    47    1
    50    26    48    1
    51    26    49    1
@<TRIPOS>SUBSTRUCTURE
     1 ZINC000939075213        1 TEMP              0 ****  ****    0 ROOT


##########                                Name:    ZINC001345266033
##########                DOCK_Rotatable_Bonds:                   4
##########                         Heavy_Atoms:                  29
##########                    Molecular_Weight:               389.5
##########                DOCK_Rotatable_Bonds:                   4
##########                       Formal_Charge:          -0.0100001
##########                     HBond_Acceptors:                   6
##########                        HBond_Donors:                   0
##########                         Heavy_Atoms:                  29
##########                          Grid_Score:          -24.409597
##########                     Grid_vdw_energy:          -24.444956
##########                      Grid_es_energy:            0.035359
##########           Internal_energy_repulsive:            6.599772

@<TRIPOS>MOLECULE
ZINC001345266033
 56 61 1 0 0
SMALL
USER_CHARGES


@<TRIPOS>ATOM
      1 C1        -12.4106    1.4294   62.3774 C.ar    1  ZINC001345266033   -0.1100
      2 C2        -12.8422    1.2917   61.0607 C.ar    1  ZINC001345266033   -0.0900
      3 C3        -12.0592    0.6793   60.1259 C.ar    1  ZINC001345266033   -0.1100
      4 C4        -10.8067    0.1846   60.4972 C.ar    1  ZINC001345266033    0.0000
      5 C5        -10.3627    0.3232   61.8375 C.ar    1  ZINC001345266033   -0.1100
      6 C6        -11.1946    0.9582   62.7725 C.ar    1  ZINC001345266033   -0.0900
      7 C7         -9.0992   -0.1827   62.1836 C.ar    1  ZINC001345266033    0.1700
      8 N8         -8.3417   -0.7718   61.2900 N.ar    1  ZINC001345266033   -0.4800
      9 C9         -8.6910   -0.9354   60.0250 C.ar    1  ZINC001345266033    0.0900
     10 C10        -9.9146   -0.4820   59.5493 C.ar    1  ZINC001345266033   -0.0700
     11 C11       -10.3008   -0.6664   58.1376 C.2     1  ZINC001345266033    0.2300
     12 N12       -10.7442   -1.7742   57.5872 N.2     1  ZINC001345266033   -0.2600
     13 N13       -10.9844   -1.5778   56.3401 N.2     1  ZINC001345266033   -0.3000
     14 C14       -10.7094   -0.3339   56.0176 C.2     1  ZINC001345266033    0.3600
     15 N15       -10.8448    0.2379   54.7649 N.3     1  ZINC001345266033   -0.4600
     16 C16       -10.0937   -0.5200   53.7569 C.3     1  ZINC001345266033    0.0600
     17 C17       -10.0764    0.2484   52.4339 C.3     1  ZINC001345266033   -0.1100
     18 C18       -11.5134    0.4016   51.9210 C.3     1  ZINC001345266033   -0.0800
     19 C19       -12.3581    1.0454   53.0256 C.3     1  ZINC001345266033   -0.1300
     20 C20       -12.5217    2.5643   53.0013 C.3     1  ZINC001345266033   -0.1600
     21 C21       -13.6991    1.6604   52.6292 C.3     1  ZINC001345266033   -0.1700
     22 C22       -12.2619    0.3597   54.3916 C.3     1  ZINC001345266033    0.1100
     23 N23       -10.2707    0.2908   57.1490 N.pl3   1  ZINC001345266033   -0.4600
     24 C24        -9.8476    1.6871   57.2816 C.3     1  ZINC001345266033    0.1000
     25 C25        -8.3286    1.7771   57.1219 C.3     1  ZINC001345266033   -0.1400
     26 H26        -7.8584    0.8404   57.4211 H       1  ZINC001345266033    0.1000
     27 C27        -7.7654    2.9557   57.9528 C.3     1  ZINC001345266033   -0.1500
     28 C28        -6.6980    3.5462   56.9966 C.3     1  ZINC001345266033    0.0500
     29 O29        -7.3007    3.4069   55.6920 O.3     1  ZINC001345266033   -0.3700
     30 C30        -7.9589    2.1257   55.6672 C.3     1  ZINC001345266033    0.0300
     31 H31       -13.0484    1.9219   63.0965 H       1  ZINC001345266033    0.1300
     32 H32       -13.8109    1.6747   60.7752 H       1  ZINC001345266033    0.1300
     33 H33       -12.4049    0.5777   59.1078 H       1  ZINC001345266033    0.1600
     34 H34       -10.8733    1.0729   63.7972 H       1  ZINC001345266033    0.1400
     35 H35        -8.7465   -0.0849   63.1997 H       1  ZINC001345266033    0.1700
     36 H36        -8.0111   -1.4313   59.3481 H       1  ZINC001345266033    0.1700
     37 H37        -9.0708   -0.6679   54.1030 H       1  ZINC001345266033    0.0700
     38 H38       -10.5673   -1.4900   53.6060 H       1  ZINC001345266033    0.0500
     39 H39        -9.6389    1.2342   52.5910 H       1  ZINC001345266033    0.0800
     40 H40        -9.4850   -0.3009   51.7015 H       1  ZINC001345266033    0.0800
     41 H41       -11.5205    1.0384   51.0365 H       1  ZINC001345266033    0.0700
     42 H42       -11.9202   -0.5788   51.6734 H       1  ZINC001345266033    0.0700
     43 H43       -12.5671    3.0812   53.9599 H       1  ZINC001345266033    0.0900
     44 H44       -12.0319    3.1105   52.1950 H       1  ZINC001345266033    0.0900
     45 H45       -13.9841    1.6118   51.5782 H       1  ZINC001345266033    0.1000
     46 H46       -14.5192    1.5825   53.3430 H       1  ZINC001345266033    0.1000
     47 H47       -12.7110   -0.6318   54.3348 H       1  ZINC001345266033    0.0600
     48 H48       -12.7858    0.9574   55.1377 H       1  ZINC001345266033    0.0800
     49 H49       -10.3302    2.2878   56.5106 H       1  ZINC001345266033    0.1100
     50 H50       -10.1324    2.0613   58.2649 H       1  ZINC001345266033    0.1100
     51 H51        -8.5439    3.6879   58.1666 H       1  ZINC001345266033    0.0800
     52 H52        -7.3064    2.5976   58.8744 H       1  ZINC001345266033    0.0900
     53 H53        -6.5166    4.5964   57.2254 H       1  ZINC001345266033    0.1000
     54 H54        -5.7720    2.9741   57.0546 H       1  ZINC001345266033    0.0600
     55 H55        -7.2852    1.3709   55.2618 H       1  ZINC001345266033    0.0600
     56 H56        -8.8618    2.1846   55.0594 H       1  ZINC001345266033    0.0900
@<TRIPOS>BOND
     1     1     6   ar
     2     1     2   ar
     3     1    31    1
     4     2     3   ar
     5     2    32    1
     6     3     4   ar
     7     3    33    1
     8     4    10   ar
     9     4     5   ar
    10     5     6   ar
    11     5     7   ar
    12     6    34    1
    13     7     8   ar
    14     7    35    1
    15     8     9   ar
    16     9    10   ar
    17     9    36    1
    18    10    11    1
    19    11    23    1
    20    11    12    2
    21    12    13    1
    22    13    14    2
    23    14    15    1
    24    14    23    1
    25    15    22    1
    26    15    16    1
    27    16    17    1
    28    16    37    1
    29    16    38    1
    30    17    18    1
    31    17    39    1
    32    17    40    1
    33    18    19    1
    34    18    41    1
    35    18    42    1
    36    19    21    1
    37    19    20    1
    38    19    22    1
    39    20    21    1
    40    20    43    1
    41    20    44    1
    42    21    45    1
    43    21    46    1
    44    22    47    1
    45    22    48    1
    46    23    24    1
    47    24    25    1
    48    24    49    1
    49    24    50    1
    50    25    26    1
    51    25    30    1
    52    25    27    1
    53    27    28    1
    54    27    51    1
    55    27    52    1
    56    28    29    1
    57    28    53    1
    58    28    54    1
    59    29    30    1
    60    30    55    1
    61    30    56    1
@<TRIPOS>SUBSTRUCTURE
     1 ZINC001345266033        1 TEMP              0 ****  ****    0 ROOT


##########                                Name:    ZINC000179211660
##########                DOCK_Rotatable_Bonds:                   6
##########                         Heavy_Atoms:                  23
##########                    Molecular_Weight:             385.208
##########                DOCK_Rotatable_Bonds:                   6
##########                       Formal_Charge:        -1.78814e-07
##########                     HBond_Acceptors:                   6
##########                        HBond_Donors:                   1
##########                         Heavy_Atoms:                  23
##########                          Grid_Score:          -24.372509
##########                     Grid_vdw_energy:          -23.503515
##########                      Grid_es_energy:           -0.868994
##########           Internal_energy_repulsive:           14.620218

@<TRIPOS>MOLECULE
ZINC000179211660
 38 39 1 0 0
SMALL
USER_CHARGES


@<TRIPOS>ATOM
      1 C1         -7.6744    0.8640   63.7379 C.3     1  ZINC000179211660    0.0300
      2 O2         -8.3812    0.8525   62.4959 O.3     1  ZINC000179211660   -0.2700
      3 C3         -9.7386    0.8761   62.5583 C.ar    1  ZINC000179211660    0.1500
      4 C4        -10.3771    0.9052   63.7894 C.ar    1  ZINC000179211660   -0.2200
      5 C5        -11.7572    0.9296   63.8501 C.ar    1  ZINC000179211660   -0.0700
      6 C6        -12.5017    0.9246   62.6853 C.ar    1  ZINC000179211660   -0.1700
      7 C7        -11.8675    0.8951   61.4567 C.ar    1  ZINC000179211660   -0.0700
      8 C8        -10.4880    0.8768   61.3905 C.ar    1  ZINC000179211660   -0.1500
      9 C9         -9.7975    0.8452   60.0514 C.3     1  ZINC000179211660    0.1800
     10 N10        -9.4165   -0.5327   59.7308 N.am    1  ZINC000179211660   -0.6200
     11 C11        -8.0694   -1.0129   60.0482 C.3     1  ZINC000179211660    0.0700
     12 C12       -10.3054   -1.3583   59.1438 C.2     1  ZINC000179211660    0.7000
     13 O13        -9.9897   -2.5023   58.8790 O.2     1  ZINC000179211660   -0.5300
     14 N14       -11.5442   -0.9160   58.8502 N.am    1  ZINC000179211660   -0.6800
     15 C15       -12.4682   -1.7742   58.2400 C.ar    1  ZINC000179211660    0.1900
     16 C16       -13.4798   -2.3540   58.9921 C.ar    1  ZINC000179211660   -0.1400
     17 C17       -14.3915   -3.2010   58.3869 C.ar    1  ZINC000179211660    0.1500
     18 F18       -15.3768   -3.7660   59.1185 F       1  ZINC000179211660   -0.1100
     19 C19       -14.2951   -3.4696   57.0314 C.ar    1  ZINC000179211660   -0.1300
     20 Br20      -15.5431   -4.6271   56.2073 Br      1  ZINC000179211660   -0.0100
     21 C21       -13.2874   -2.8922   56.2793 C.ar    1  ZINC000179211660   -0.0700
     22 C22       -12.3767   -2.0418   56.8784 C.ar    1  ZINC000179211660    0.0600
     23 F23       -11.3930   -1.4783   56.1434 F       1  ZINC000179211660   -0.1300
     24 H24        -6.6017    0.8427   63.5457 H       1  ZINC000179211660    0.1000
     25 H25        -7.9266    1.7687   64.2910 H       1  ZINC000179211660    0.0500
     26 H26        -7.9559   -0.0107   64.3243 H       1  ZINC000179211660    0.0500
     27 H27        -9.7959    0.9084   64.6997 H       1  ZINC000179211660    0.1300
     28 H28       -12.2548    0.9522   64.8083 H       1  ZINC000179211660    0.1200
     29 H29       -13.5804    0.9433   62.7347 H       1  ZINC000179211660    0.1200
     30 H30       -12.4513    0.8908   60.5481 H       1  ZINC000179211660    0.1300
     31 H31       -10.4741    1.2228   59.2848 H       1  ZINC000179211660    0.0900
     32 H32        -8.9050    1.4698   60.0879 H       1  ZINC000179211660    0.1000
     33 H33        -8.0622   -1.4376   61.0521 H       1  ZINC000179211660    0.0600
     34 H34        -7.7771   -1.7771   59.3282 H       1  ZINC000179211660    0.0600
     35 H35        -7.3665   -0.1811   60.0007 H       1  ZINC000179211660    0.0800
     36 H36       -11.7960   -0.0034   59.0614 H       1  ZINC000179211660    0.4100
     37 H37       -13.5554   -2.1449   60.0488 H       1  ZINC000179211660    0.1800
     38 H38       -13.2144   -3.1032   55.2226 H       1  ZINC000179211660    0.1600
@<TRIPOS>BOND
     1     1     2    1
     2     1    24    1
     3     1    25    1
     4     1    26    1
     5     2     3    1
     6     3     8   ar
     7     3     4   ar
     8     4     5   ar
     9     4    27    1
    10     5     6   ar
    11     5    28    1
    12     6     7   ar
    13     6    29    1
    14     7     8   ar
    15     7    30    1
    16     8     9    1
    17     9    10    1
    18     9    31    1
    19     9    32    1
    20    10    11    1
    21    10    12   am
    22    11    33    1
    23    11    34    1
    24    11    35    1
    25    12    13    2
    26    12    14   am
    27    14    15    1
    28    14    36    1
    29    15    22   ar
    30    15    16   ar
    31    16    17   ar
    32    16    37    1
    33    17    18    1
    34    17    19   ar
    35    19    20    1
    36    19    21   ar
    37    21    22   ar
    38    21    38    1
    39    22    23    1
@<TRIPOS>SUBSTRUCTURE
     1 ZINC000179211660        1 TEMP              0 ****  ****    0 ROOT


##########                                Name:    ZINC000364058410
##########                DOCK_Rotatable_Bonds:                   5
##########                         Heavy_Atoms:                  25
##########                    Molecular_Weight:             358.464
##########                DOCK_Rotatable_Bonds:                   5
##########                       Formal_Charge:           0.0100002
##########                     HBond_Acceptors:                   7
##########                        HBond_Donors:                   0
##########                         Heavy_Atoms:                  25
##########                          Grid_Score:          -24.339132
##########                     Grid_vdw_energy:          -23.936705
##########                      Grid_es_energy:           -0.402428
##########           Internal_energy_repulsive:           63.011860

@<TRIPOS>MOLECULE
ZINC000364058410
 47 50 1 0 0
SMALL
USER_CHARGES


@<TRIPOS>ATOM
      1 C1         -6.7131    2.5916   55.5249 C.3     1  ZINC000364058410   -0.0700
      2 C2         -7.6433    1.9064   54.5573 C.2     1  ZINC000364058410   -0.2500
      3 C3         -8.8960    1.4728   54.8288 C.2     1  ZINC000364058410    0.0800
      4 N4         -9.3922    0.9179   53.7032 N.pl3   1  ZINC000364058410   -0.3600
      5 C5        -10.7214    0.3213   53.5500 C.3     1  ZINC000364058410    0.1300
      6 C6        -10.9898   -0.8499   54.5124 C.3     1  ZINC000364058410    0.1100
      7 N7        -11.5272    0.1656   55.4386 N.am    1  ZINC000364058410   -0.6500
      8 C8        -11.6808    0.2377   56.7756 C.2     1  ZINC000364058410    0.5600
      9 O9        -12.1698    1.2277   57.2773 O.2     1  ZINC000364058410   -0.5000
     10 C10       -11.2448   -0.9117   57.6472 C.3     1  ZINC000364058410    0.1400
     11 H11       -10.4685   -1.4827   57.1378 H       1  ZINC000364058410    0.0900
     12 C12       -10.6990   -0.3726   58.9733 C.3     1  ZINC000364058410   -0.1200
     13 C13       -10.3883   -1.5448   59.9068 C.3     1  ZINC000364058410   -0.1200
     14 C14       -11.6734   -2.3245   60.1946 C.3     1  ZINC000364058410   -0.1400
     15 C15       -12.2301   -2.8857   58.8824 C.3     1  ZINC000364058410    0.1000
     16 N16       -12.3948   -1.7830   57.9251 N.am    1  ZINC000364058410   -0.6000
     17 C17       -13.5794   -1.5720   57.3179 C.2     1  ZINC000364058410    0.5900
     18 O18       -13.7029   -0.6552   56.5270 O.2     1  ZINC000364058410   -0.4900
     19 C19       -14.7188   -2.4465   57.6100 C.2     1  ZINC000364058410   -0.2600
     20 C20       -14.8688   -3.7290   57.1627 C.2     1  ZINC000364058410   -0.0600
     21 C21       -16.0348   -4.3202   57.5880 C.2     1  ZINC000364058410   -0.1400
     22 C22       -16.8140   -3.5504   58.3569 C.2     1  ZINC000364058410   -0.2400
     23 S23       -16.1079   -2.0161   58.5983 S.3     1  ZINC000364058410    0.2100
     24 C24       -11.8289    1.0707   54.3126 C.3     1  ZINC000364058410    0.0900
     25 N25        -8.4121    1.0137   52.7069 N.2     1  ZINC000364058410   -0.3000
     26 C26        -7.3666    1.6117   53.2183 C.2     1  ZINC000364058410    0.0500
     27 H27        -6.8697    3.6692   55.4783 H       1  ZINC000364058410    0.0600
     28 H28        -6.9158    2.2383   56.5359 H       1  ZINC000364058410    0.0600
     29 H29        -5.6806    2.3627   55.2602 H       1  ZINC000364058410    0.0600
     30 H30        -9.4071    1.5558   55.7766 H       1  ZINC000364058410    0.1700
     31 H31       -10.9728    0.1047   52.5117 H       1  ZINC000364058410    0.1300
     32 H32       -11.7387   -1.5539   54.1497 H       1  ZINC000364058410    0.1100
     33 H33       -10.0846   -1.3384   54.8733 H       1  ZINC000364058410    0.0900
     34 H34        -9.7879    0.1959   58.7874 H       1  ZINC000364058410    0.0800
     35 H35       -11.4438    0.2743   59.4370 H       1  ZINC000364058410    0.0800
     36 H36        -9.6620   -2.2044   59.4319 H       1  ZINC000364058410    0.0700
     37 H37        -9.9767   -1.1650   60.8419 H       1  ZINC000364058410    0.0800
     38 H38       -11.4556   -3.1452   60.8780 H       1  ZINC000364058410    0.0800
     39 H39       -12.4089   -1.6592   60.6469 H       1  ZINC000364058410    0.0700
     40 H40       -11.5350   -3.6198   58.4749 H       1  ZINC000364058410    0.0800
     41 H41       -13.1955   -3.3569   59.0671 H       1  ZINC000364058410    0.0900
     42 H42       -14.1438   -4.2283   56.5370 H       1  ZINC000364058410    0.1500
     43 H43       -16.3026   -5.3318   57.3207 H       1  ZINC000364058410    0.1500
     44 H44       -17.7613   -3.8606   58.7726 H       1  ZINC000364058410    0.1700
     45 H45       -11.5937    2.1159   54.5138 H       1  ZINC000364058410    0.0900
     46 H46       -12.8244    0.9310   53.8912 H       1  ZINC000364058410    0.1100
     47 H47        -6.4462    1.8327   52.6984 H       1  ZINC000364058410    0.1800
@<TRIPOS>BOND
     1     1     2    1
     2     1    27    1
     3     1    28    1
     4     1    29    1
     5     2    26    1
     6     2     3    2
     7     3     4    1
     8     3    30    1
     9     4     5    1
    10     4    25    1
    11     5    24    1
    12     5     6    1
    13     5    31    1
    14     6     7    1
    15     6    32    1
    16     6    33    1
    17     7     8   am
    18     7    24    1
    19     8     9    2
    20     8    10    1
    21    10    11    1
    22    10    16    1
    23    10    12    1
    24    12    13    1
    25    12    34    1
    26    12    35    1
    27    13    14    1
    28    13    36    1
    29    13    37    1
    30    14    15    1
    31    14    38    1
    32    14    39    1
    33    15    16    1
    34    15    40    1
    35    15    41    1
    36    16    17   am
    37    17    18    2
    38    17    19    1
    39    19    23    1
    40    19    20    2
    41    20    21    1
    42    20    42    1
    43    21    22    2
    44    21    43    1
    45    22    23    1
    46    22    44    1
    47    24    45    1
    48    24    46    1
    49    25    26    2
    50    26    47    1
@<TRIPOS>SUBSTRUCTURE
     1 ZINC000364058410        1 TEMP              0 ****  ****    0 ROOT


##########                                Name:    ZINC001067316277
##########                DOCK_Rotatable_Bonds:                   5
##########                         Heavy_Atoms:                  24
##########                    Molecular_Weight:             345.469
##########                DOCK_Rotatable_Bonds:                   5
##########                       Formal_Charge:          -0.0200007
##########                     HBond_Acceptors:                   7
##########                        HBond_Donors:                   2
##########                         Heavy_Atoms:                  24
##########                          Grid_Score:          -24.325516
##########                     Grid_vdw_energy:          -24.625294
##########                      Grid_es_energy:            0.299778
##########           Internal_energy_repulsive:            8.353885

@<TRIPOS>MOLECULE
ZINC001067316277
 47 49 1 0 0
SMALL
USER_CHARGES


@<TRIPOS>ATOM
      1 C1         -5.6110    1.5769   50.6966 C.3     1  ZINC001067316277   -0.1400
      2 S2         -5.7166    3.0237   51.7792 S.3     1  ZINC001067316277   -0.0400
      3 C3         -4.0774    3.6487   51.6153 C.ar    1  ZINC001067316277    0.1800
      4 C4         -3.6886    4.8056   52.2954 C.ar    1  ZINC001067316277   -0.2400
      5 C5         -2.3938    5.2589   52.1371 C.ar    1  ZINC001067316277    0.1900
      6 N6         -1.5637    4.5889   51.3509 N.ar    1  ZINC001067316277   -0.5600
      7 C7         -1.9592    3.4941   50.7177 C.ar    1  ZINC001067316277    0.5100
      8 N8         -1.0618    2.8228   49.9057 N.3     1  ZINC001067316277   -0.4600
      9 C9         -1.1677    3.2797   48.5141 C.3     1  ZINC001067316277    0.0700
     10 C10        -0.2691    2.4188   47.6234 C.3     1  ZINC001067316277   -0.1300
     11 C11         1.1791    2.5303   48.1080 C.3     1  ZINC001067316277    0.1600
     12 H12         1.5148    3.5634   48.0175 H       1  ZINC001067316277    0.0900
     13 N13         2.0357    1.6640   47.2944 N.am    1  ZINC001067316277   -0.7200
     14 C14         2.7825    2.1923   46.3047 C.2     1  ZINC001067316277    0.5900
     15 O15         2.7442    3.3888   46.0859 O.2     1  ZINC001067316277   -0.5300
     16 C16         3.6415    1.3252   45.4913 C.2     1  ZINC001067316277   -0.0600
     17 C17         3.8215   -0.0315   45.6582 C.2     1  ZINC001067316277   -0.1000
     18 C18         4.7174   -0.4517   44.6701 C.2     1  ZINC001067316277   -0.2100
     19 C19         5.0614    0.6316   43.9333 C.2     1  ZINC001067316277    0.0300
     20 N20         4.4102    1.7167   44.4187 N.pl3   1  ZINC001067316277   -0.5400
     21 C21         1.2534    2.0947   49.5740 C.3     1  ZINC001067316277   -0.0700
     22 C22         0.8340    0.6282   49.6931 C.3     1  ZINC001067316277   -0.1400
     23 C23         2.6867    2.2592   50.0837 C.3     1  ZINC001067316277   -0.1400
     24 C24         0.3107    2.9651   50.4081 C.3     1  ZINC001067316277    0.0800
     25 N25        -3.1902    3.0231   50.8468 N.ar    1  ZINC001067316277   -0.5400
     26 H26        -5.3579    1.8971   49.6859 H       1  ZINC001067316277    0.0900
     27 H27        -4.8401    0.9012   51.0674 H       1  ZINC001067316277    0.0900
     28 H28        -6.5712    1.0611   50.6847 H       1  ZINC001067316277    0.1000
     29 H29        -4.3849    5.3336   52.9300 H       1  ZINC001067316277    0.1500
     30 H30        -2.0613    6.1502   52.6483 H       1  ZINC001067316277    0.1700
     31 H31        -2.2016    3.1912   48.1805 H       1  ZINC001067316277    0.1000
     32 H32        -0.8531    4.3212   48.4488 H       1  ZINC001067316277    0.0500
     33 H33        -0.5919    1.3790   47.6775 H       1  ZINC001067316277    0.0800
     34 H34        -0.3360    2.7680   46.5931 H       1  ZINC001067316277    0.0800
     35 H35         2.0654    0.7101   47.4681 H       1  ZINC001067316277    0.3900
     36 H36         3.3582   -0.6526   46.4104 H       1  ZINC001067316277    0.1500
     37 H37         5.0723   -1.4607   44.5211 H       1  ZINC001067316277    0.1500
     38 H38         5.7408    0.6302   43.0937 H       1  ZINC001067316277    0.1700
     39 H39         4.4789    2.6199   44.0715 H       1  ZINC001067316277    0.4100
     40 H40         1.5037    0.0091   49.0959 H       1  ZINC001067316277    0.0500
     41 H41         0.8872    0.3186   50.7368 H       1  ZINC001067316277    0.0600
     42 H42        -0.1875    0.5119   49.3311 H       1  ZINC001067316277    0.0700
     43 H43         2.9844    3.3043   50.0000 H       1  ZINC001067316277    0.0600
     44 H44         2.7390    1.9489   51.1273 H       1  ZINC001067316277    0.0600
     45 H45         3.3576    1.6412   49.4869 H       1  ZINC001067316277    0.0600
     46 H46         0.6184    4.0080   50.3340 H       1  ZINC001067316277    0.0600
     47 H47         0.3506    2.6480   51.4503 H       1  ZINC001067316277    0.1000
@<TRIPOS>BOND
     1     1     2    1
     2     1    26    1
     3     1    27    1
     4     1    28    1
     5     2     3    1
     6     3    25   ar
     7     3     4   ar
     8     4     5   ar
     9     4    29    1
    10     5     6   ar
    11     5    30    1
    12     6     7   ar
    13     7     8    1
    14     7    25   ar
    15     8    24    1
    16     8     9    1
    17     9    10    1
    18     9    31    1
    19     9    32    1
    20    10    11    1
    21    10    33    1
    22    10    34    1
    23    11    12    1
    24    11    13    1
    25    11    21    1
    26    13    14   am
    27    13    35    1
    28    14    15    2
    29    14    16    1
    30    16    20    1
    31    16    17    2
    32    17    18    1
    33    17    36    1
    34    18    19    2
    35    18    37    1
    36    19    20    1
    37    19    38    1
    38    20    39    1
    39    21    22    1
    40    21    23    1
    41    21    24    1
    42    22    40    1
    43    22    41    1
    44    22    42    1
    45    23    43    1
    46    23    44    1
    47    23    45    1
    48    24    46    1
    49    24    47    1
@<TRIPOS>SUBSTRUCTURE
     1 ZINC001067316277        1 TEMP              0 ****  ****    0 ROOT


##########                                Name:    ZINC000521663393
##########                DOCK_Rotatable_Bonds:                   5
##########                         Heavy_Atoms:                  27
##########                    Molecular_Weight:              386.49
##########                DOCK_Rotatable_Bonds:                   5
##########                       Formal_Charge:               -0.02
##########                     HBond_Acceptors:                   6
##########                        HBond_Donors:                   1
##########                         Heavy_Atoms:                  27
##########                          Grid_Score:          -24.325434
##########                     Grid_vdw_energy:          -24.472692
##########                      Grid_es_energy:            0.147258
##########           Internal_energy_repulsive:           23.998995

@<TRIPOS>MOLECULE
ZINC000521663393
 50 53 1 0 0
SMALL
USER_CHARGES


@<TRIPOS>ATOM
      1 C1         -8.9273    0.2917   52.7695 C.3     1  ZINC000521663393   -0.1500
      2 C2        -10.2961   -0.2567   52.3611 C.3     1  ZINC000521663393    0.0800
      3 H3        -10.2739   -1.3451   52.3069 H       1  ZINC000521663393    0.0900
      4 O4        -10.7172    0.3071   51.1073 O.3     1  ZINC000521663393   -0.2900
      5 C5        -12.0706    0.4538   51.1135 C.ar    1  ZINC000521663393    0.1400
      6 C6        -12.9558    0.6118   50.0509 C.ar    1  ZINC000521663393   -0.1800
      7 C7        -14.3095    0.7555   50.2888 C.ar    1  ZINC000521663393    0.1400
      8 F8        -15.1620    0.9091   49.2520 F       1  ZINC000521663393   -0.1300
      9 C9        -14.7961    0.7426   51.5851 C.ar    1  ZINC000521663393   -0.1800
     10 C10       -13.9216    0.5812   52.6450 C.ar    1  ZINC000521663393   -0.0200
     11 C11       -12.5728    0.4346   52.4089 C.ar    1  ZINC000521663393   -0.2000
     12 C12       -11.3928    0.2211   53.3420 C.3     1  ZINC000521663393    0.1700
     13 H13       -11.1043    1.1546   53.8250 H       1  ZINC000521663393    0.1200
     14 N14       -11.6934   -0.8098   54.3386 N.am    1  ZINC000521663393   -0.7200
     15 C15       -11.1839   -0.7133   55.5827 C.2     1  ZINC000521663393    0.5300
     16 O16       -10.4779    0.2277   55.8776 O.2     1  ZINC000521663393   -0.5000
     17 C17       -11.4917   -1.7746   56.6073 C.3     1  ZINC000521663393    0.1200
     18 H18       -10.9302   -2.6791   56.3735 H       1  ZINC000521663393    0.0700
     19 C19       -11.1002   -1.2800   57.9760 C.ar    1  ZINC000521663393   -0.0900
     20 C20       -10.4491   -2.1243   58.8560 C.ar    1  ZINC000521663393   -0.0900
     21 C21       -10.0901   -1.6707   60.1113 C.ar    1  ZINC000521663393   -0.1200
     22 C22       -10.3816   -0.3726   60.4868 C.ar    1  ZINC000521663393   -0.1100
     23 C23       -11.0317    0.4720   59.6065 C.ar    1  ZINC000521663393   -0.1200
     24 C24       -11.3871    0.0196   58.3495 C.ar    1  ZINC000521663393   -0.1100
     25 N25       -12.9301   -2.0723   56.5872 N.3     1  ZINC000521663393   -0.5300
     26 C26       -13.7217   -0.8454   56.7019 C.3     1  ZINC000521663393    0.0500
     27 C27       -15.1601   -1.1090   56.2434 C.3     1  ZINC000521663393   -0.0700
     28 S28       -15.8952   -2.3607   57.3395 S.3     1  ZINC000521663393   -0.2700
     29 C29       -14.6427   -3.6791   57.2971 C.3     1  ZINC000521663393   -0.0700
     30 C30       -13.2756   -3.0616   57.6105 C.3     1  ZINC000521663393    0.0600
     31 H31        -8.6600   -0.0945   53.7531 H       1  ZINC000521663393    0.0800
     32 H32        -8.1790   -0.0200   52.0409 H       1  ZINC000521663393    0.0800
     33 H33        -8.9681    1.3803   52.8054 H       1  ZINC000521663393    0.0700
     34 H34       -12.5834    0.6226   49.0371 H       1  ZINC000521663393    0.1400
     35 H35       -15.8542    0.8583   51.7682 H       1  ZINC000521663393    0.1400
     36 H36       -14.2968    0.5701   53.6577 H       1  ZINC000521663393    0.1300
     37 H37       -12.2590   -1.5617   54.1032 H       1  ZINC000521663393    0.4000
     38 H38       -10.2214   -3.1385   58.5627 H       1  ZINC000521663393    0.1300
     39 H39        -9.5821   -2.3305   60.7991 H       1  ZINC000521663393    0.1300
     40 H40       -10.1016   -0.0184   61.4678 H       1  ZINC000521663393    0.1200
     41 H41       -11.2598    1.4860   59.8998 H       1  ZINC000521663393    0.1300
     42 H42       -11.8951    0.6795   57.6617 H       1  ZINC000521663393    0.1200
     43 H43       -13.7276   -0.5138   57.7403 H       1  ZINC000521663393    0.0500
     44 H44       -13.2791   -0.0691   56.0777 H       1  ZINC000521663393    0.1000
     45 H45       -15.7378   -0.1866   56.3015 H       1  ZINC000521663393    0.1100
     46 H46       -15.1555   -1.4777   55.2176 H       1  ZINC000521663393    0.0900
     47 H47       -14.8825   -4.4362   58.0438 H       1  ZINC000521663393    0.1100
     48 H48       -14.6214   -4.1321   56.3059 H       1  ZINC000521663393    0.1000
     49 H49       -12.5189   -3.8460   57.6261 H       1  ZINC000521663393    0.0800
     50 H50       -13.3125   -2.5762   58.5857 H       1  ZINC000521663393    0.0500
@<TRIPOS>BOND
     1     1     2    1
     2     1    31    1
     3     1    32    1
     4     1    33    1
     5     2     3    1
     6     2    12    1
     7     2     4    1
     8     4     5    1
     9     5    11   ar
    10     5     6   ar
    11     6     7   ar
    12     6    34    1
    13     7     8    1
    14     7     9   ar
    15     9    10   ar
    16     9    35    1
    17    10    11   ar
    18    10    36    1
    19    11    12    1
    20    12    13    1
    21    12    14    1
    22    14    15   am
    23    14    37    1
    24    15    16    2
    25    15    17    1
    26    17    18    1
    27    17    19    1
    28    17    25    1
    29    19    24   ar
    30    19    20   ar
    31    20    21   ar
    32    20    38    1
    33    21    22   ar
    34    21    39    1
    35    22    23   ar
    36    22    40    1
    37    23    24   ar
    38    23    41    1
    39    24    42    1
    40    25    30    1
    41    25    26    1
    42    26    27    1
    43    26    43    1
    44    26    44    1
    45    27    28    1
    46    27    45    1
    47    27    46    1
    48    28    29    1
    49    29    30    1
    50    29    47    1
    51    29    48    1
    52    30    49    1
    53    30    50    1
@<TRIPOS>SUBSTRUCTURE
     1 ZINC000521663393        1 TEMP              0 ****  ****    0 ROOT


##########                                Name:    ZINC000506388363
##########                DOCK_Rotatable_Bonds:                   5
##########                         Heavy_Atoms:                  29
##########                    Molecular_Weight:             416.858
##########                DOCK_Rotatable_Bonds:                   5
##########                       Formal_Charge:         7.07805e-07
##########                     HBond_Acceptors:                   8
##########                        HBond_Donors:                   1
##########                         Heavy_Atoms:                  29
##########                          Grid_Score:          -24.313976
##########                     Grid_vdw_energy:          -23.450132
##########                      Grid_es_energy:           -0.863843
##########           Internal_energy_repulsive:           11.957562

@<TRIPOS>MOLECULE
ZINC000506388363
 48 51 1 0 0
SMALL
USER_CHARGES


@<TRIPOS>ATOM
      1 O1        -10.5899   -1.1455   52.7813 O.2     1  ZINC000506388363   -0.5300
      2 C2        -10.7031   -0.3027   53.6499 C.2     1  ZINC000506388363    0.5600
      3 C3        -10.0664    1.0212   53.4828 C.ar    1  ZINC000506388363   -0.1200
      4 C4        -10.5178    1.8960   52.4936 C.ar    1  ZINC000506388363   -0.0900
      5 C5         -9.9200    3.1304   52.3426 C.ar    1  ZINC000506388363   -0.1100
      6 C6         -8.8747    3.5019   53.1688 C.ar    1  ZINC000506388363   -0.0900
      7 C7         -8.4214    2.6390   54.1525 C.ar    1  ZINC000506388363   -0.0400
      8 Cl8        -7.1093    3.1146   55.1848 Cl      1  ZINC000506388363   -0.0600
      9 C9         -9.0150    1.4034   54.3175 C.ar    1  ZINC000506388363   -0.0600
     10 N10       -11.4137   -0.5731   54.7627 N.am    1  ZINC000506388363   -0.6100
     11 C11       -11.5734    0.4365   55.8204 C.3     1  ZINC000506388363    0.1000
     12 C12       -13.0646    0.5657   56.1489 C.3     1  ZINC000506388363    0.0400
     13 N13       -13.6089   -0.7607   56.4690 N.3     1  ZINC000506388363   -0.5300
     14 C14       -14.9911   -0.6590   56.9557 C.3     1  ZINC000506388363    0.1200
     15 C15       -15.4289   -1.9915   57.5068 C.2     1  ZINC000506388363   -0.2100
     16 C16       -16.4537   -2.7437   57.0495 C.2     1  ZINC000506388363    0.0600
     17 N17       -16.5217   -3.8599   57.8063 N.pl3   1  ZINC000506388363   -0.4700
     18 N18       -15.5039   -3.7984   58.7667 N.2     1  ZINC000506388363   -0.2700
     19 C19       -14.8386   -2.6771   58.5864 C.2     1  ZINC000506388363    0.1300
     20 C20       -13.6783   -2.2122   59.3862 C.ar    1  ZINC000506388363   -0.0700
     21 C21       -13.8602   -1.2804   60.4084 C.ar    1  ZINC000506388363    0.1500
     22 F22       -15.0943   -0.7988   60.6736 F       1  ZINC000506388363   -0.1200
     23 C23       -12.7749   -0.8514   61.1497 C.ar    1  ZINC000506388363   -0.1600
     24 C24       -11.5111   -1.3437   60.8798 C.ar    1  ZINC000506388363   -0.0500
     25 C25       -11.3239   -2.2675   59.8678 C.ar    1  ZINC000506388363   -0.1600
     26 C26       -12.4017   -2.7092   59.1228 C.ar    1  ZINC000506388363    0.1600
     27 F27       -12.2172   -3.6117   58.1345 F       1  ZINC000506388363   -0.1200
     28 C28       -13.5225   -1.6650   55.3145 C.3     1  ZINC000506388363    0.0400
     29 C29       -12.0552   -1.8835   54.9490 C.3     1  ZINC000506388363    0.1200
     30 H30       -11.3334    1.6071   51.8472 H       1  ZINC000506388363    0.1400
     31 H31       -10.2689    3.8079   51.5773 H       1  ZINC000506388363    0.1400
     32 H32        -8.4098    4.4690   53.0458 H       1  ZINC000506388363    0.1400
     33 H33        -8.6613    0.7311   55.0850 H       1  ZINC000506388363    0.1400
     34 H34       -11.0281    0.1233   56.7107 H       1  ZINC000506388363    0.0800
     35 H35       -11.1908    1.3957   55.4716 H       1  ZINC000506388363    0.1000
     36 H36       -13.1923    1.2276   57.0054 H       1  ZINC000506388363    0.0900
     37 H37       -13.5922    0.9774   55.2886 H       1  ZINC000506388363    0.0400
     38 H38       -15.0452    0.0945   57.7414 H       1  ZINC000506388363    0.1000
     39 H39       -15.6461   -0.3733   56.1326 H       1  ZINC000506388363    0.0400
     40 H40       -17.1044   -2.4956   56.2240 H       1  ZINC000506388363    0.1800
     41 H41       -17.1642   -4.5792   57.7032 H       1  ZINC000506388363    0.4400
     42 H42       -12.9143   -0.1298   61.9412 H       1  ZINC000506388363    0.1500
     43 H43       -10.6666   -1.0051   61.4615 H       1  ZINC000506388363    0.1500
     44 H44       -10.3344   -2.6479   59.6618 H       1  ZINC000506388363    0.1500
     45 H45       -13.9823   -2.6207   55.5659 H       1  ZINC000506388363    0.0900
     46 H46       -14.0437   -1.2221   54.4658 H       1  ZINC000506388363    0.0400
     47 H47       -11.9896   -2.4595   54.0260 H       1  ZINC000506388363    0.1000
     48 H48       -11.5530   -2.4191   55.7547 H       1  ZINC000506388363    0.0800
@<TRIPOS>BOND
     1     1     2    2
     2     2     3    1
     3     2    10   am
     4     3     9   ar
     5     3     4   ar
     6     4     5   ar
     7     4    30    1
     8     5     6   ar
     9     5    31    1
    10     6     7   ar
    11     6    32    1
    12     7     8    1
    13     7     9   ar
    14     9    33    1
    15    10    29    1
    16    10    11    1
    17    11    12    1
    18    11    34    1
    19    11    35    1
    20    12    13    1
    21    12    36    1
    22    12    37    1
    23    13    14    1
    24    13    28    1
    25    14    15    1
    26    14    38    1
    27    14    39    1
    28    15    19    1
    29    15    16    2
    30    16    17    1
    31    16    40    1
    32    17    18    1
    33    17    41    1
    34    18    19    2
    35    19    20    1
    36    20    26   ar
    37    20    21   ar
    38    21    22    1
    39    21    23   ar
    40    23    24   ar
    41    23    42    1
    42    24    25   ar
    43    24    43    1
    44    25    26   ar
    45    25    44    1
    46    26    27    1
    47    28    29    1
    48    28    45    1
    49    28    46    1
    50    29    47    1
    51    29    48    1
@<TRIPOS>SUBSTRUCTURE
     1 ZINC000506388363        1 TEMP              0 ****  ****    0 ROOT


##########                                Name:    ZINC001067560454
##########                DOCK_Rotatable_Bonds:                   4
##########                         Heavy_Atoms:                  25
##########                    Molecular_Weight:             342.444
##########                DOCK_Rotatable_Bonds:                   4
##########                       Formal_Charge:          0.00999971
##########                     HBond_Acceptors:                   7
##########                        HBond_Donors:                   1
##########                         Heavy_Atoms:                  25
##########                          Grid_Score:          -24.294407
##########                     Grid_vdw_energy:          -24.518982
##########                      Grid_es_energy:            0.224576
##########           Internal_energy_repulsive:           11.331531

@<TRIPOS>MOLECULE
ZINC001067560454
 51 54 1 0 0
SMALL
USER_CHARGES


@<TRIPOS>ATOM
      1 C1          1.4243    3.5405   50.8667 C.3     1  ZINC001067560454   -0.1500
      2 C2          0.0227    2.9328   50.9522 C.3     1  ZINC001067560454    0.1000
      3 H3          0.0949    1.8999   51.2930 H       1  ZINC001067560454    0.0600
      4 C4         -0.8228    3.7382   51.9412 C.3     1  ZINC001067560454   -0.1200
      5 C5         -2.2301    3.1387   52.0084 C.3     1  ZINC001067560454    0.1400
      6 H6         -2.1728    2.1151   52.3786 H       1  ZINC001067560454    0.0900
      7 N7         -3.0609    3.9398   52.9109 N.am    1  ZINC001067560454   -0.7200
      8 C8         -3.3539    3.4798   54.1434 C.2     1  ZINC001067560454    0.5400
      9 O9         -2.9309    2.4022   54.5049 O.2     1  ZINC001067560454   -0.5300
     10 C10        -4.2070    4.3046   55.0725 C.3     1  ZINC001067560454   -0.1100
     11 C11        -5.3860    4.9717   54.3612 C.3     1  ZINC001067560454   -0.1300
     12 C12        -4.6007    3.5683   56.3638 C.3     1  ZINC001067560454   -0.1200
     13 C13        -3.3037    4.1188   56.9799 C.3     1  ZINC001067560454   -0.1400
     14 C14        -3.3991    5.2660   55.9601 C.3     1  ZINC001067560454   -0.1200
     15 C15        -2.8454    3.1421   50.6063 C.3     1  ZINC001067560454   -0.1200
     16 C16        -1.9412    2.3540   49.6559 C.3     1  ZINC001067560454    0.0600
     17 N17        -0.6073    2.9675   49.6262 N.3     1  ZINC001067560454   -0.4900
     18 C18         0.1974    2.3591   48.6789 C.ar    1  ZINC001067560454    0.4400
     19 C19         0.6452    3.0699   47.5525 C.ar    1  ZINC001067560454   -0.0800
     20 N20         0.4791    4.3345   47.0961 N.2     1  ZINC001067560454   -0.4700
     21 C21         1.1245    4.4787   45.9753 C.2     1  ZINC001067560454    0.2700
     22 N22         1.7463    3.3121   45.6424 N.pl3   1  ZINC001067560454   -0.4800
     23 C23         2.5695    3.0771   44.4536 C.3     1  ZINC001067560454    0.0800
     24 C24         1.4604    2.3986   46.6253 C.ar    1  ZINC001067560454    0.2800
     25 N25         1.7763    1.1267   46.8452 N.ar    1  ZINC001067560454   -0.5200
     26 C26         1.3337    0.5007   47.9153 C.ar    1  ZINC001067560454    0.3300
     27 N27         0.5693    1.0905   48.8161 N.ar    1  ZINC001067560454   -0.5100
     28 H28         1.3523    4.5733   50.5258 H       1  ZINC001067560454    0.0700
     29 H29         1.8922    3.5144   51.8507 H       1  ZINC001067560454    0.0700
     30 H30         2.0268    2.9667   50.1625 H       1  ZINC001067560454    0.0500
     31 H31        -0.3631    3.6994   52.9288 H       1  ZINC001067560454    0.0800
     32 H32        -0.8842    4.7743   51.6081 H       1  ZINC001067560454    0.0800
     33 H33        -3.4002    4.8011   52.6214 H       1  ZINC001067560454    0.4000
     34 H34        -5.9251    4.2274   53.7752 H       1  ZINC001067560454    0.0600
     35 H35        -6.0573    5.4074   55.1013 H       1  ZINC001067560454    0.0700
     36 H36        -5.0155    5.7555   53.7006 H       1  ZINC001067560454    0.0600
     37 H37        -5.5055    3.9582   56.8302 H       1  ZINC001067560454    0.0900
     38 H38        -4.6095    2.4831   56.2623 H       1  ZINC001067560454    0.0700
     39 H39        -3.4153    4.4439   58.0143 H       1  ZINC001067560454    0.0700
     40 H40        -2.4398    3.4716   56.8295 H       1  ZINC001067560454    0.0800
     41 H41        -2.4378    5.5512   55.5327 H       1  ZINC001067560454    0.0800
     42 H42        -3.9754    6.1199   56.3161 H       1  ZINC001067560454    0.0900
     43 H43        -3.8307    2.6774   50.6402 H       1  ZINC001067560454    0.0800
     44 H44        -2.9385    4.1689   50.2522 H       1  ZINC001067560454    0.0800
     45 H45        -1.8597    1.3239   50.0030 H       1  ZINC001067560454    0.0700
     46 H46        -2.3691    2.3665   48.6535 H       1  ZINC001067560454    0.0800
     47 H47         1.1617    5.3883   45.3942 H       1  ZINC001067560454    0.2300
     48 H48         3.6090    3.3163   44.6783 H       1  ZINC001067560454    0.0800
     49 H49         2.4929    2.0303   44.1598 H       1  ZINC001067560454    0.0900
     50 H50         2.2192    3.7099   43.6382 H       1  ZINC001067560454    0.0900
     51 H51         1.6090   -0.5330   48.0640 H       1  ZINC001067560454    0.2100
@<TRIPOS>BOND
     1     1     2    1
     2     1    28    1
     3     1    29    1
     4     1    30    1
     5     2     3    1
     6     2    17    1
     7     2     4    1
     8     4     5    1
     9     4    31    1
    10     4    32    1
    11     5     6    1
    12     5     7    1
    13     5    15    1
    14     7     8   am
    15     7    33    1
    16     8     9    2
    17     8    10    1
    18    10    14    1
    19    10    11    1
    20    10    12    1
    21    11    34    1
    22    11    35    1
    23    11    36    1
    24    12    13    1
    25    12    37    1
    26    12    38    1
    27    13    14    1
    28    13    39    1
    29    13    40    1
    30    14    41    1
    31    14    42    1
    32    15    16    1
    33    15    43    1
    34    15    44    1
    35    16    17    1
    36    16    45    1
    37    16    46    1
    38    17    18    1
    39    18    27   ar
    40    18    19   ar
    41    19    24   ar
    42    19    20    1
    43    20    21    2
    44    21    22    1
    45    21    47    1
    46    22    23    1
    47    22    24    1
    48    23    48    1
    49    23    49    1
    50    23    50    1
    51    24    25   ar
    52    25    26   ar
    53    26    27   ar
    54    26    51    1
@<TRIPOS>SUBSTRUCTURE
     1 ZINC001067560454        1 TEMP              0 ****  ****    0 ROOT


##########                                Name:    ZINC000055987960
##########                DOCK_Rotatable_Bonds:                   6
##########                         Heavy_Atoms:                  28
##########                    Molecular_Weight:             404.868
##########                DOCK_Rotatable_Bonds:                   6
##########                       Formal_Charge:          0.00999941
##########                     HBond_Acceptors:                   7
##########                        HBond_Donors:                   1
##########                         Heavy_Atoms:                  28
##########                          Grid_Score:          -24.292383
##########                     Grid_vdw_energy:          -24.228411
##########                      Grid_es_energy:           -0.063973
##########           Internal_energy_repulsive:           14.280312

@<TRIPOS>MOLECULE
ZINC000055987960
 50 52 1 0 0
SMALL
USER_CHARGES


@<TRIPOS>ATOM
      1 C1        -13.3936    1.0591   58.9309 C.3     1  ZINC000055987960   -0.1800
      2 C2        -14.3697    0.2319   58.0920 C.3     1  ZINC000055987960    0.0700
      3 H3        -15.1191    0.8896   57.6516 H       1  ZINC000055987960    0.1200
      4 C4        -13.6031   -0.4894   56.9776 C.3     1  ZINC000055987960    0.0800
      5 N5        -12.7321   -1.5025   57.5941 N.am    1  ZINC000055987960   -0.6100
      6 C6        -11.4229   -1.5746   57.2820 C.2     1  ZINC000055987960    0.5700
      7 O7        -10.7195   -2.4189   57.8023 O.2     1  ZINC000055987960   -0.5300
      8 C8        -10.8431   -0.6286   56.3087 C.ar    1  ZINC000055987960   -0.1500
      9 C9        -10.7555   -0.9788   54.9586 C.ar    1  ZINC000055987960   -0.0700
     10 C10       -10.2144   -0.0940   54.0532 C.ar    1  ZINC000055987960   -0.1500
     11 C11        -9.7552    1.1478   54.4811 C.ar    1  ZINC000055987960    0.1700
     12 N12        -9.2082    2.0417   53.5614 N.am    1  ZINC000055987960   -0.6700
     13 C13        -7.9593    2.5149   53.7425 C.2     1  ZINC000055987960    0.5200
     14 O14        -7.3112    2.1632   54.7053 O.2     1  ZINC000055987960   -0.5000
     15 C15        -7.3680    3.4811   52.7485 C.3     1  ZINC000055987960   -0.1100
     16 C16        -5.8716    3.3078   52.7084 C.ar    1  ZINC000055987960   -0.1000
     17 C17        -5.0692    4.0104   53.5906 C.ar    1  ZINC000055987960    0.1300
     18 F18        -5.6271    4.8522   54.4880 F       1  ZINC000055987960   -0.1300
     19 C19        -3.6941    3.8498   53.5530 C.ar    1  ZINC000055987960   -0.1500
     20 C20        -3.1240    2.9885   52.6353 C.ar    1  ZINC000055987960   -0.0700
     21 C21        -3.9254    2.2866   51.7541 C.ar    1  ZINC000055987960   -0.1200
     22 C22        -5.2995    2.4418   51.7937 C.ar    1  ZINC000055987960    0.0000
     23 Cl23       -6.3049    1.5595   50.6872 Cl      1  ZINC000055987960   -0.0500
     24 C24        -9.8410    1.4996   55.8245 C.ar    1  ZINC000055987960   -0.1200
     25 C25       -10.3857    0.6215   56.7341 C.ar    1  ZINC000055987960   -0.0500
     26 C26       -13.3325   -2.4344   58.5619 C.3     1  ZINC000055987960    0.0600
     27 C27       -14.1122   -1.6183   59.5992 C.3     1  ZINC000055987960    0.0700
     28 H28       -13.4158   -1.0357   60.2022 H       1  ZINC000055987960    0.0700
     29 C29       -14.9040   -2.5646   60.5038 C.3     1  ZINC000055987960   -0.1500
     30 O30       -15.0135   -0.7357   58.9244 O.3     1  ZINC000055987960   -0.3700
     31 H31       -12.6444    0.4009   59.3710 H       1  ZINC000055987960    0.0600
     32 H32       -12.9018    1.7956   58.2953 H       1  ZINC000055987960    0.0700
     33 H33       -13.9390    1.5703   59.7242 H       1  ZINC000055987960    0.0700
     34 H34       -14.3078   -0.9735   56.3013 H       1  ZINC000055987960    0.0800
     35 H35       -12.9972    0.2284   56.4248 H       1  ZINC000055987960    0.1000
     36 H36       -11.1114   -1.9426   54.6259 H       1  ZINC000055987960    0.1400
     37 H37       -10.1460   -0.3641   53.0098 H       1  ZINC000055987960    0.1300
     38 H38        -9.7266    2.3232   52.7914 H       1  ZINC000055987960    0.4200
     39 H39        -7.7832    3.2848   51.7599 H       1  ZINC000055987960    0.1200
     40 H40        -7.6077    4.5017   53.0471 H       1  ZINC000055987960    0.1200
     41 H41        -3.0675    4.3981   54.2409 H       1  ZINC000055987960    0.1500
     42 H42        -2.0516    2.8638   52.6060 H       1  ZINC000055987960    0.1500
     43 H43        -3.4787    1.6139   51.0369 H       1  ZINC000055987960    0.1400
     44 H44        -9.4832    2.4641   56.1534 H       1  ZINC000055987960    0.1500
     45 H45       -10.4520    0.8951   57.7768 H       1  ZINC000055987960    0.1300
     46 H46       -14.0098   -3.1143   58.0451 H       1  ZINC000055987960    0.0800
     47 H47       -12.5473   -3.0045   59.0582 H       1  ZINC000055987960    0.1100
     48 H48       -14.2165   -3.2388   61.0146 H       1  ZINC000055987960    0.0700
     49 H49       -15.4581   -1.9836   61.2411 H       1  ZINC000055987960    0.0700
     50 H50       -15.6013   -3.1455   59.9002 H       1  ZINC000055987960    0.0700
@<TRIPOS>BOND
     1     1     2    1
     2     1    31    1
     3     1    32    1
     4     1    33    1
     5     2     3    1
     6     2    30    1
     7     2     4    1
     8     4     5    1
     9     4    34    1
    10     4    35    1
    11     5     6   am
    12     5    26    1
    13     6     7    2
    14     6     8    1
    15     8    25   ar
    16     8     9   ar
    17     9    10   ar
    18     9    36    1
    19    10    11   ar
    20    10    37    1
    21    11    12    1
    22    11    24   ar
    23    12    13   am
    24    12    38    1
    25    13    14    2
    26    13    15    1
    27    15    16    1
    28    15    39    1
    29    15    40    1
    30    16    22   ar
    31    16    17   ar
    32    17    18    1
    33    17    19   ar
    34    19    20   ar
    35    19    41    1
    36    20    21   ar
    37    20    42    1
    38    21    22   ar
    39    21    43    1
    40    22    23    1
    41    24    25   ar
    42    24    44    1
    43    25    45    1
    44    26    27    1
    45    26    46    1
    46    26    47    1
    47    27    28    1
    48    27    29    1
    49    27    30    1
    50    29    48    1
    51    29    49    1
    52    29    50    1
@<TRIPOS>SUBSTRUCTURE
     1 ZINC000055987960        1 TEMP              0 ****  ****    0 ROOT


##########                                Name:    ZINC000132775118
##########                DOCK_Rotatable_Bonds:                   5
##########                         Heavy_Atoms:                  27
##########                    Molecular_Weight:             376.499
##########                DOCK_Rotatable_Bonds:                   5
##########                       Formal_Charge:        -4.76837e-07
##########                     HBond_Acceptors:                   7
##########                        HBond_Donors:                   1
##########                         Heavy_Atoms:                  27
##########                          Grid_Score:          -24.291946
##########                     Grid_vdw_energy:          -23.768522
##########                      Grid_es_energy:           -0.523425
##########           Internal_energy_repulsive:           21.983795

@<TRIPOS>MOLECULE
ZINC000132775118
 59 62 1 0 0
SMALL
USER_CHARGES


@<TRIPOS>ATOM
      1 O1        -10.4441   -0.8211   60.4179 O.2     1  ZINC000132775118   -0.5200
      2 C2        -10.7385    0.3251   60.1525 C.2     1  ZINC000132775118    0.5200
      3 C3        -12.1273    0.8330   60.4431 C.3     1  ZINC000132775118    0.0300
      4 N4        -12.9660   -0.2772   60.9142 N.3     1  ZINC000132775118   -0.5100
      5 C5        -13.8544    0.1584   62.0018 C.3     1  ZINC000132775118    0.0300
      6 C6        -14.8546   -0.9126   62.3295 C.2     1  ZINC000132775118    0.5300
      7 O7        -15.4638   -0.8324   63.3752 O.2     1  ZINC000132775118   -0.5500
      8 N8        -15.1071   -1.9521   61.5227 N.am    1  ZINC000132775118   -0.7200
      9 C9        -14.3732   -2.1612   60.2823 C.3     1  ZINC000132775118    0.1500
     10 H10       -13.5727   -2.8791   60.4613 H       1  ZINC000132775118    0.0800
     11 C11       -15.2798   -2.6954   59.1758 C.3     1  ZINC000132775118   -0.1300
     12 C12       -14.4350   -2.9516   57.9236 C.3     1  ZINC000132775118   -0.1200
     13 C13       -13.7643   -1.6542   57.4716 C.3     1  ZINC000132775118   -0.1200
     14 C14       -12.8787   -1.1037   58.5940 C.3     1  ZINC000132775118   -0.1200
     15 C15       -13.7597   -0.8394   59.8156 C.3     1  ZINC000132775118    0.0700
     16 H16       -14.5452   -0.1323   59.5491 H       1  ZINC000132775118    0.0600
     17 N17        -9.8219    1.1462   59.6029 N.am    1  ZINC000132775118   -0.6200
     18 C18        -8.4657    0.6639   59.3083 C.3     1  ZINC000132775118    0.1100
     19 C19        -8.1481    0.9530   57.8378 C.3     1  ZINC000132775118   -0.1200
     20 C20        -8.3601    2.4424   57.5576 C.3     1  ZINC000132775118   -0.1000
     21 C21        -8.0159    2.7369   56.1202 C.2     1  ZINC000132775118    0.5300
     22 O22        -8.8538    2.5956   55.2548 O.2     1  ZINC000132775118   -0.5300
     23 N23        -6.7770    3.1572   55.7965 N.am    1  ZINC000132775118   -0.6200
     24 C24        -6.3102    3.4851   54.4413 C.3     1  ZINC000132775118    0.1000
     25 C25        -4.8259    3.8921   54.5540 C.3     1  ZINC000132775118   -0.1300
     26 C26        -4.3833    3.2276   55.8844 C.3     1  ZINC000132775118   -0.1300
     27 C27        -5.6673    3.3706   56.7432 C.3     1  ZINC000132775118    0.1000
     28 C28        -9.8233    2.8088   57.8168 C.3     1  ZINC000132775118   -0.1200
     29 C29       -10.1616    2.5390   59.2815 C.3     1  ZINC000132775118    0.1200
     30 H30       -12.0787    1.6036   61.2124 H       1  ZINC000132775118    0.0700
     31 H31       -12.5579    1.2535   59.5343 H       1  ZINC000132775118    0.1200
     32 H32       -13.2577    0.3759   62.8876 H       1  ZINC000132775118    0.1300
     33 H33       -14.3824    1.0611   61.6946 H       1  ZINC000132775118    0.0700
     34 H34       -15.7991   -2.5845   61.7724 H       1  ZINC000132775118    0.4000
     35 H35       -15.7426   -3.6272   59.5009 H       1  ZINC000132775118    0.0800
     36 H36       -16.0530   -1.9608   58.9507 H       1  ZINC000132775118    0.0700
     37 H37       -13.6701   -3.6948   58.1489 H       1  ZINC000132775118    0.0700
     38 H38       -15.0759   -3.3249   57.1248 H       1  ZINC000132775118    0.0700
     39 H39       -13.1522   -1.8509   56.5914 H       1  ZINC000132775118    0.0700
     40 H40       -14.5296   -0.9195   57.2212 H       1  ZINC000132775118    0.0600
     41 H41       -12.1058   -1.8319   58.8397 H       1  ZINC000132775118    0.0800
     42 H42       -12.4154   -0.1719   58.2699 H       1  ZINC000132775118    0.0700
     43 H43        -7.7477    1.1802   59.9455 H       1  ZINC000132775118    0.0800
     44 H44        -8.4123   -0.4097   59.4894 H       1  ZINC000132775118    0.0900
     45 H45        -7.1114    0.6877   57.6306 H       1  ZINC000132775118    0.0800
     46 H46        -8.8089    0.3652   57.2005 H       1  ZINC000132775118    0.0800
     47 H47        -7.7172    3.0303   58.2127 H       1  ZINC000132775118    0.0900
     48 H48        -6.4074    2.6129   53.7948 H       1  ZINC000132775118    0.0700
     49 H49        -6.8925    4.3141   54.0392 H       1  ZINC000132775118    0.0700
     50 H50        -4.2528    3.4960   53.7158 H       1  ZINC000132775118    0.0800
     51 H51        -4.7267    4.9761   54.6127 H       1  ZINC000132775118    0.0800
     52 H52        -4.1266    2.1794   55.7310 H       1  ZINC000132775118    0.0800
     53 H53        -3.5519    3.7701   56.3345 H       1  ZINC000132775118    0.0900
     54 H54        -5.7216    4.3672   57.1813 H       1  ZINC000132775118    0.0700
     55 H55        -5.6879    2.6104   57.5241 H       1  ZINC000132775118    0.0800
     56 H56        -9.9788    3.8646   57.5947 H       1  ZINC000132775118    0.0800
     57 H57       -10.4682    2.2037   57.1797 H       1  ZINC000132775118    0.0800
     58 H58       -11.2262    2.7044   59.4470 H       1  ZINC000132775118    0.1000
     59 H59        -9.5825    3.2068   59.9192 H       1  ZINC000132775118    0.0700
@<TRIPOS>BOND
     1     1     2    2
     2     2     3    1
     3     2    17   am
     4     3     4    1
     5     3    30    1
     6     3    31    1
     7     4    15    1
     8     4     5    1
     9     5     6    1
    10     5    32    1
    11     5    33    1
    12     6     7    2
    13     6     8   am
    14     8     9    1
    15     8    34    1
    16     9    10    1
    17     9    15    1
    18     9    11    1
    19    11    12    1
    20    11    35    1
    21    11    36    1
    22    12    13    1
    23    12    37    1
    24    12    38    1
    25    13    14    1
    26    13    39    1
    27    13    40    1
    28    14    15    1
    29    14    41    1
    30    14    42    1
    31    15    16    1
    32    17    29    1
    33    17    18    1
    34    18    19    1
    35    18    43    1
    36    18    44    1
    37    19    20    1
    38    19    45    1
    39    19    46    1
    40    20    21    1
    41    20    28    1
    42    20    47    1
    43    21    22    2
    44    21    23   am
    45    23    27    1
    46    23    24    1
    47    24    25    1
    48    24    48    1
    49    24    49    1
    50    25    26    1
    51    25    50    1
    52    25    51    1
    53    26    27    1
    54    26    52    1
    55    26    53    1
    56    27    54    1
    57    27    55    1
    58    28    29    1
    59    28    56    1
    60    28    57    1
    61    29    58    1
    62    29    59    1
@<TRIPOS>SUBSTRUCTURE
     1 ZINC000132775118        1 TEMP              0 ****  ****    0 ROOT


##########                                Name:    ZINC000543429378
##########                DOCK_Rotatable_Bonds:                   6
##########                         Heavy_Atoms:                  29
##########                    Molecular_Weight:             406.408
##########                DOCK_Rotatable_Bonds:                   6
##########                       Formal_Charge:           0.0100003
##########                     HBond_Acceptors:                   9
##########                        HBond_Donors:                   1
##########                         Heavy_Atoms:                  29
##########                          Grid_Score:          -24.276342
##########                     Grid_vdw_energy:          -23.747149
##########                      Grid_es_energy:           -0.529193
##########           Internal_energy_repulsive:           27.618746

@<TRIPOS>MOLECULE
ZINC000543429378
 50 53 1 0 0
SMALL
USER_CHARGES


@<TRIPOS>ATOM
      1 O1        -12.4271   -1.8141   55.2615 O.2     1  ZINC000543429378   -0.5100
      2 C2        -13.0137   -0.7597   55.1387 C.2     1  ZINC000543429378    0.5200
      3 N3        -14.1383   -0.5280   55.8445 N.am    1  ZINC000543429378   -0.6600
      4 C4        -14.6322   -1.5061   56.7147 C.ar    1  ZINC000543429378    0.1900
      5 C5        -14.8702   -2.7933   56.2508 C.ar    1  ZINC000543429378   -0.1600
      6 C6        -15.3574   -3.7592   57.1102 C.ar    1  ZINC000543429378   -0.0600
      7 C7        -15.6093   -3.4476   58.4325 C.ar    1  ZINC000543429378   -0.2100
      8 C8        -15.3732   -2.1627   58.9017 C.ar    1  ZINC000543429378    0.1300
      9 O9        -15.6216   -1.8575   60.2025 O.3     1  ZINC000543429378   -0.3100
     10 C10       -14.4957   -1.7937   61.0802 C.3     1  ZINC000543429378    0.6000
     11 F11       -13.8088   -0.5930   60.8711 F       1  ZINC000543429378   -0.1600
     12 F12       -14.9348   -1.8548   62.4071 F       1  ZINC000543429378   -0.1300
     13 F13       -13.6412   -2.8708   60.8218 F       1  ZINC000543429378   -0.1600
     14 C14       -14.8793   -1.1926   58.0441 C.ar    1  ZINC000543429378   -0.1300
     15 C15       -12.4819    0.2938   54.2015 C.3     1  ZINC000543429378    0.0700
     16 H16       -13.3003    0.9157   53.8391 H       1  ZINC000543429378    0.1200
     17 C17       -11.7582   -0.3800   53.0035 C.3     1  ZINC000543429378   -0.1200
     18 C18       -10.5684    0.5662   52.7808 C.3     1  ZINC000543429378   -0.1000
     19 H19       -10.8766    1.4644   52.2457 H       1  ZINC000543429378    0.0900
     20 C20        -9.3510   -0.0657   52.1275 C.3     1  ZINC000543429378   -0.1100
     21 C21        -8.2397    0.9959   52.1097 C.3     1  ZINC000543429378   -0.1200
     22 C22        -7.9150    1.4893   53.5165 C.3     1  ZINC000543429378   -0.1100
     23 C23        -9.1735    2.0055   54.2338 C.3     1  ZINC000543429378   -0.0900
     24 C24       -10.1914    0.8890   54.2523 C.3     1  ZINC000543429378    0.0700
     25 H25        -9.7404   -0.0014   54.6903 H       1  ZINC000543429378    0.0900
     26 N26       -11.4780    1.1359   54.9031 N.3     1  ZINC000543429378   -0.4300
     27 C27       -11.4247    0.8099   56.2473 C.ar    1  ZINC000543429378    0.5000
     28 N28       -12.2298    1.4320   57.0960 N.ar    1  ZINC000543429378   -0.5300
     29 C29       -12.2045    1.1438   58.3867 C.ar    1  ZINC000543429378    0.1800
     30 C30       -11.3223    0.1788   58.8469 C.ar    1  ZINC000543429378   -0.2500
     31 C31       -10.4944   -0.4523   57.9319 C.ar    1  ZINC000543429378    0.1800
     32 N32       -10.5737   -0.1206   56.6538 N.ar    1  ZINC000543429378   -0.5300
     33 H33       -14.6052    0.3169   55.7492 H       1  ZINC000543429378    0.4200
     34 H34       -14.6748   -3.0393   55.2174 H       1  ZINC000543429378    0.1400
     35 H35       -15.5420   -4.7596   56.7476 H       1  ZINC000543429378    0.1400
     36 H36       -15.9907   -4.2045   59.1017 H       1  ZINC000543429378    0.1400
     37 H37       -14.6949   -0.1924   58.4074 H       1  ZINC000543429378    0.1500
     38 H38       -11.4162   -1.3808   53.2675 H       1  ZINC000543429378    0.0800
     39 H39       -12.4028   -0.4090   52.1250 H       1  ZINC000543429378    0.0900
     40 H40        -9.0276   -0.9315   52.7053 H       1  ZINC000543429378    0.0700
     41 H41        -9.5918   -0.3677   51.1083 H       1  ZINC000543429378    0.0700
     42 H42        -7.3417    0.5643   51.6675 H       1  ZINC000543429378    0.0600
     43 H43        -8.5637    1.8407   51.5020 H       1  ZINC000543429378    0.0600
     44 H44        -7.4876    0.6685   54.0925 H       1  ZINC000543429378    0.0600
     45 H45        -7.1850    2.2961   53.4519 H       1  ZINC000543429378    0.0700
     46 H46        -8.9251    2.2976   55.2541 H       1  ZINC000543429378    0.0700
     47 H47        -9.5849    2.8579   53.6931 H       1  ZINC000543429378    0.0700
     48 H48       -12.8629    1.6545   59.0737 H       1  ZINC000543429378    0.1600
     49 H49       -11.2808   -0.0755   59.8957 H       1  ZINC000543429378    0.1400
     50 H50        -9.7955   -1.2085   58.2579 H       1  ZINC000543429378    0.1600
@<TRIPOS>BOND
     1     1     2    2
     2     2     3   am
     3     2    15    1
     4     3     4    1
     5     3    33    1
     6     4    14   ar
     7     4     5   ar
     8     5     6   ar
     9     5    34    1
    10     6     7   ar
    11     6    35    1
    12     7     8   ar
    13     7    36    1
    14     8     9    1
    15     8    14   ar
    16     9    10    1
    17    10    11    1
    18    10    12    1
    19    10    13    1
    20    14    37    1
    21    15    16    1
    22    15    26    1
    23    15    17    1
    24    17    18    1
    25    17    38    1
    26    17    39    1
    27    18    19    1
    28    18    24    1
    29    18    20    1
    30    20    21    1
    31    20    40    1
    32    20    41    1
    33    21    22    1
    34    21    42    1
    35    21    43    1
    36    22    23    1
    37    22    44    1
    38    22    45    1
    39    23    24    1
    40    23    46    1
    41    23    47    1
    42    24    25    1
    43    24    26    1
    44    26    27    1
    45    27    32   ar
    46    27    28   ar
    47    28    29   ar
    48    29    30   ar
    49    29    48    1
    50    30    31   ar
    51    30    49    1
    52    31    32   ar
    53    31    50    1
@<TRIPOS>SUBSTRUCTURE
     1 ZINC000543429378        1 TEMP              0 ****  ****    0 ROOT


##########                                Name:    ZINC000002873519
##########                DOCK_Rotatable_Bonds:                   5
##########                         Heavy_Atoms:                  25
##########                    Molecular_Weight:             375.207
##########                DOCK_Rotatable_Bonds:                   5
##########                       Formal_Charge:               -0.02
##########                     HBond_Acceptors:                   6
##########                        HBond_Donors:                   0
##########                         Heavy_Atoms:                  25
##########                          Grid_Score:          -24.244967
##########                     Grid_vdw_energy:          -24.619982
##########                      Grid_es_energy:            0.375015
##########           Internal_energy_repulsive:            9.484021

@<TRIPOS>MOLECULE
ZINC000002873519
 37 39 1 0 0
SMALL
USER_CHARGES


@<TRIPOS>ATOM
      1 C1        -10.4799    0.6950   51.7907 C.3     1  ZINC000002873519   -0.1500
      2 C2         -9.4243    0.0096   52.6197 C.2     1  ZINC000002873519    0.4500
      3 O3         -9.6721   -1.0388   53.1668 O.2     1  ZINC000002873519   -0.4800
      4 O4         -8.2081    0.5640   52.7500 O.3     1  ZINC000002873519   -0.2900
      5 C5         -8.1258    1.7040   53.4821 C.ar    1  ZINC000002873519    0.1200
      6 C6         -8.7835    1.7997   54.6970 C.ar    1  ZINC000002873519   -0.1100
      7 C7         -8.6991    2.9604   55.4426 C.ar    1  ZINC000002873519   -0.0800
      8 C8         -7.9573    4.0387   54.9839 C.ar    1  ZINC000002873519   -0.0400
      9 Cl9        -7.8621    5.4884   55.9341 Cl      1  ZINC000002873519   -0.0500
     10 C10        -7.2949    3.9647   53.7775 C.ar    1  ZINC000002873519   -0.0800
     11 C11        -7.3671    2.7920   53.0131 C.ar    1  ZINC000002873519   -0.0700
     12 C12        -6.6669    2.7039   51.7310 C.2     1  ZINC000002873519    0.0400
     13 C13        -5.2862    2.7205   51.6956 C.2     1  ZINC000002873519   -0.1900
     14 C14        -4.4116    2.6489   50.5124 C.2     1  ZINC000002873519   -0.2000
     15 C15        -3.1431    2.6989   50.9708 C.2     1  ZINC000002873519    0.1200
     16 C16        -1.9440    2.6551   50.1105 C.ar    1  ZINC000002873519   -0.0400
     17 C17        -2.0791    2.5744   48.7226 C.ar    1  ZINC000002873519   -0.0800
     18 C18        -0.9552    2.5338   47.9246 C.ar    1  ZINC000002873519   -0.1100
     19 C19         0.3056    2.5724   48.4966 C.ar    1  ZINC000002873519   -0.0200
     20 Cl20        1.7155    2.5208   47.4851 Cl      1  ZINC000002873519   -0.0600
     21 C21         0.4464    2.6524   49.8720 C.ar    1  ZINC000002873519   -0.1100
     22 C22        -0.6697    2.7001   50.6808 C.ar    1  ZINC000002873519   -0.0800
     23 O23        -3.1118    2.7946   52.3151 O.3     1  ZINC000002873519   -0.2600
     24 C24        -4.3527    2.8206   52.8336 C.2     1  ZINC000002873519    0.5200
     25 O25        -4.6474    2.9019   54.0114 O.2     1  ZINC000002873519   -0.4200
     26 H26       -11.0562    1.3705   52.4229 H       1  ZINC000002873519    0.1100
     27 H27       -10.0027    1.2629   50.9921 H       1  ZINC000002873519    0.1000
     28 H28       -11.1442   -0.0529   51.3578 H       1  ZINC000002873519    0.1100
     29 H29        -9.3639    0.9655   55.0626 H       1  ZINC000002873519    0.1500
     30 H30        -9.2148    3.0282   56.3891 H       1  ZINC000002873519    0.1500
     31 H31        -6.7188    4.8068   53.4237 H       1  ZINC000002873519    0.1500
     32 H32        -7.2296    2.6257   50.8125 H       1  ZINC000002873519    0.1500
     33 H33        -4.7237    2.5711   49.4815 H       1  ZINC000002873519    0.1700
     34 H34        -3.0618    2.5435   48.2754 H       1  ZINC000002873519    0.1400
     35 H35        -1.0583    2.4714   46.8513 H       1  ZINC000002873519    0.1400
     36 H36         1.4323    2.6818   50.3120 H       1  ZINC000002873519    0.1400
     37 H37        -0.5586    2.7624   51.7532 H       1  ZINC000002873519    0.1400
@<TRIPOS>BOND
     1     1     2    1
     2     1    26    1
     3     1    27    1
     4     1    28    1
     5     2     3    2
     6     2     4    1
     7     4     5    1
     8     5    11   ar
     9     5     6   ar
    10     6     7   ar
    11     6    29    1
    12     7     8   ar
    13     7    30    1
    14     8     9    1
    15     8    10   ar
    16    10    11   ar
    17    10    31    1
    18    11    12    1
    19    12    13    2
    20    12    32    1
    21    13    24    1
    22    13    14    1
    23    14    15    2
    24    14    33    1
    25    15    16    1
    26    15    23    1
    27    16    22   ar
    28    16    17   ar
    29    17    18   ar
    30    17    34    1
    31    18    19   ar
    32    18    35    1
    33    19    20    1
    34    19    21   ar
    35    21    22   ar
    36    21    36    1
    37    22    37    1
    38    23    24    1
    39    24    25    2
@<TRIPOS>SUBSTRUCTURE
     1 ZINC000002873519        1 TEMP              0 ****  ****    0 ROOT


##########                                Name:    ZINC000252489163
##########                DOCK_Rotatable_Bonds:                   6
##########                         Heavy_Atoms:                  25
##########                    Molecular_Weight:             379.403
##########                DOCK_Rotatable_Bonds:                   6
##########                       Formal_Charge:          0.00999963
##########                     HBond_Acceptors:                  10
##########                        HBond_Donors:                   2
##########                         Heavy_Atoms:                  25
##########                          Grid_Score:          -24.244915
##########                     Grid_vdw_energy:          -23.404018
##########                      Grid_es_energy:           -0.840897
##########           Internal_energy_repulsive:            9.295465

@<TRIPOS>MOLECULE
ZINC000252489163
 45 46 1 0 0
SMALL
USER_CHARGES


@<TRIPOS>ATOM
      1 C1         -8.4562   -0.0349   62.4011 C.3     1  ZINC000252489163   -0.1100
      2 C2         -9.1209    0.0005   61.0490 C.ar    1  ZINC000252489163   -0.0600
      3 C3         -8.8445    1.0302   60.1714 C.ar    1  ZINC000252489163   -0.1300
      4 C4         -9.4570    1.0619   58.9253 C.ar    1  ZINC000252489163    0.1700
      5 N5         -9.1786    2.1037   58.0334 N.am    1  ZINC000252489163   -0.6800
      6 C6         -8.1522    1.9930   57.1669 C.2     1  ZINC000252489163    0.7100
      7 O7         -7.4680    0.9879   57.1603 O.2     1  ZINC000252489163   -0.5500
      8 N8         -7.8841    2.9964   56.3080 N.am    1  ZINC000252489163   -0.6200
      9 C9         -8.7018    4.2171   56.3041 C.3     1  ZINC000252489163    0.1000
     10 C10        -9.2091    4.4662   54.8803 C.3     1  ZINC000252489163   -0.1400
     11 C11        -8.0193    4.5037   53.9184 C.3     1  ZINC000252489163   -0.1300
     12 C12        -7.2971    3.1546   53.9448 C.3     1  ZINC000252489163    0.1400
     13 H13        -7.9927    2.3641   53.6630 H       1  ZINC000252489163    0.0900
     14 N14        -6.1777    3.1806   53.0000 N.am    1  ZINC000252489163   -1.1100
     15 S15        -6.3613    2.5471   51.4810 S.o2    1  ZINC000252489163    2.6100
     16 C16        -4.7492    2.7979   50.6881 C.3     1  ZINC000252489163   -0.6700
     17 O17        -6.5974    1.1638   51.7044 O.2     1  ZINC000252489163   -0.9500
     18 O18        -7.3485    3.3703   50.8751 O.2     1  ZINC000252489163   -0.9500
     19 C19        -6.7648    2.8930   55.3619 C.3     1  ZINC000252489163    0.1100
     20 C20       -10.3458    0.0575   58.5662 C.ar    1  ZINC000252489163   -0.1000
     21 C21       -10.6181   -0.9698   59.4486 C.ar    1  ZINC000252489163   -0.1600
     22 C22       -11.5828   -2.0604   59.0597 C.3     1  ZINC000252489163    0.5100
     23 F23       -12.6758   -1.4993   58.3906 F       1  ZINC000252489163   -0.1700
     24 F24       -10.9392   -2.9736   58.2176 F       1  ZINC000252489163   -0.1800
     25 F25       -12.0287   -2.7206   60.2097 F       1  ZINC000252489163   -0.1800
     26 C26       -10.0027   -1.0013   60.6863 C.ar    1  ZINC000252489163   -0.0900
     27 H27        -7.5178   -0.5848   62.3303 H       1  ZINC000252489163    0.0800
     28 H28        -8.2565    0.9834   62.7345 H       1  ZINC000252489163    0.0700
     29 H29        -9.1138   -0.5290   63.1164 H       1  ZINC000252489163    0.0700
     30 H30        -8.1529    1.8102   60.4537 H       1  ZINC000252489163    0.1300
     31 H31        -9.7244    2.9056   58.0386 H       1  ZINC000252489163    0.4100
     32 H32        -9.5499    4.0909   56.9773 H       1  ZINC000252489163    0.0800
     33 H33        -8.0968    5.0632   56.6298 H       1  ZINC000252489163    0.0800
     34 H34        -9.8866    3.6634   54.5897 H       1  ZINC000252489163    0.0700
     35 H35        -9.7366    5.4193   54.8435 H       1  ZINC000252489163    0.0900
     36 H36        -8.3753    4.7053   52.9081 H       1  ZINC000252489163    0.0800
     37 H37        -7.3298    5.2906   54.2241 H       1  ZINC000252489163    0.0800
     38 H38        -5.3291    3.5689   53.2643 H       1  ZINC000252489163    0.4200
     39 H39        -3.9796    2.2756   51.2565 H       1  ZINC000252489163    0.1300
     40 H40        -4.7793    2.4055   49.6716 H       1  ZINC000252489163    0.1300
     41 H41        -4.5199    3.8631   50.6597 H       1  ZINC000252489163    0.1300
     42 H42        -6.0019    3.6316   55.6078 H       1  ZINC000252489163    0.0800
     43 H43        -6.3367    1.8918   55.4123 H       1  ZINC000252489163    0.1100
     44 H44       -10.8241    0.0796   57.5981 H       1  ZINC000252489163    0.1800
     45 H45       -10.2169   -1.8057   61.3743 H       1  ZINC000252489163    0.1300
@<TRIPOS>BOND
     1     1     2    1
     2     1    27    1
     3     1    28    1
     4     1    29    1
     5     2    26   ar
     6     2     3   ar
     7     3     4   ar
     8     3    30    1
     9     4     5    1
    10     4    20   ar
    11     5     6   am
    12     5    31    1
    13     6     7    2
    14     6     8   am
    15     8    19    1
    16     8     9    1
    17     9    10    1
    18     9    32    1
    19     9    33    1
    20    10    11    1
    21    10    34    1
    22    10    35    1
    23    11    12    1
    24    11    36    1
    25    11    37    1
    26    12    13    1
    27    12    14    1
    28    12    19    1
    29    14    15   am
    30    14    38    1
    31    15    16    1
    32    15    17    2
    33    15    18    2
    34    16    39    1
    35    16    40    1
    36    16    41    1
    37    19    42    1
    38    19    43    1
    39    20    21   ar
    40    20    44    1
    41    21    22    1
    42    21    26   ar
    43    22    23    1
    44    22    24    1
    45    22    25    1
    46    26    45    1
@<TRIPOS>SUBSTRUCTURE
     1 ZINC000252489163        1 TEMP              0 ****  ****    0 ROOT


##########                                Name:    ZINC000845755710
##########                DOCK_Rotatable_Bonds:                   3
##########                         Heavy_Atoms:                  24
##########                    Molecular_Weight:             349.814
##########                DOCK_Rotatable_Bonds:                   3
##########                       Formal_Charge:         -0.00999974
##########                     HBond_Acceptors:                   6
##########                        HBond_Donors:                   0
##########                         Heavy_Atoms:                  24
##########                          Grid_Score:          -24.203812
##########                     Grid_vdw_energy:          -24.144753
##########                      Grid_es_energy:           -0.059060
##########           Internal_energy_repulsive:           17.448912

@<TRIPOS>MOLECULE
ZINC000845755710
 44 47 1 0 0
SMALL
USER_CHARGES


@<TRIPOS>ATOM
      1 C1         -4.0598    3.4686   55.9410 C.3     1  ZINC000845755710   -0.1700
      2 C2         -2.6215    3.5124   55.4210 C.3     1  ZINC000845755710    0.2600
      3 C3         -2.6051    4.0847   54.0022 C.3     1  ZINC000845755710   -0.0900
      4 C4         -1.1630    4.1453   53.4935 C.3     1  ZINC000845755710   -0.1300
      5 C5         -1.1472    4.7507   52.0864 C.3     1  ZINC000845755710    0.1100
      6 N6         -2.0574    3.9790   51.2293 N.am    1  ZINC000845755710   -0.6000
      7 C7         -1.6272    3.4610   50.0618 C.2     1  ZINC000845755710    0.5900
      8 O8         -2.3908    2.8238   49.3610 O.2     1  ZINC000845755710   -0.5200
      9 C9         -0.2348    3.6658   49.6350 C.2     1  ZINC000845755710   -0.2200
     10 C10         0.3314    4.8274   49.2091 C.2     1  ZINC000845755710    0.0600
     11 O11         1.6188    4.6220   48.9077 O.3     1  ZINC000845755710   -0.1800
     12 C12         1.9721    3.3360   49.1131 C.ar    1  ZINC000845755710    0.0500
     13 C13         3.1646    2.6419   48.9515 C.ar    1  ZINC000845755710   -0.0900
     14 C14         3.2251    1.2971   49.2496 C.ar    1  ZINC000845755710   -0.0800
     15 C15         2.1032    0.6241   49.7115 C.ar    1  ZINC000845755710   -0.0400
     16 Cl16        2.2005   -1.0695   50.0806 Cl      1  ZINC000845755710   -0.0600
     17 C17         0.9104    1.2973   49.8785 C.ar    1  ZINC000845755710   -0.0500
     18 C18         0.8406    2.6550   49.5858 C.ar    1  ZINC000845755710   -0.0900
     19 C19        -3.4452    3.7823   51.6693 C.3     1  ZINC000845755710    0.1000
     20 C20        -3.4353    3.1877   53.0811 C.3     1  ZINC000845755710   -0.1300
     21 O21        -1.8217    4.3404   56.2820 O.3     1  ZINC000845755710   -0.3700
     22 C22        -1.1923    3.4175   57.2031 C.3     1  ZINC000845755710    0.0100
     23 C23        -0.9282    2.1936   56.2910 C.3     1  ZINC000845755710    0.0200
     24 O24        -2.0718    2.1883   55.4128 O.3     1  ZINC000845755710   -0.3800
     25 H25        -4.0691    3.0555   56.9497 H       1  ZINC000845755710    0.0600
     26 H26        -4.4708    4.4780   55.9580 H       1  ZINC000845755710    0.0800
     27 H27        -4.6640    2.8412   55.2858 H       1  ZINC000845755710    0.0800
     28 H28        -3.0296    5.0885   54.0107 H       1  ZINC000845755710    0.0900
     29 H29        -0.5669    4.7654   54.1631 H       1  ZINC000845755710    0.0800
     30 H30        -0.7459    3.1388   53.4613 H       1  ZINC000845755710    0.0800
     31 H31        -1.4790    5.7880   52.1311 H       1  ZINC000845755710    0.0700
     32 H32        -0.1366    4.7054   51.6805 H       1  ZINC000845755710    0.1000
     33 H33        -0.1818    5.7741   49.1263 H       1  ZINC000845755710    0.2200
     34 H34         4.0440    3.1555   48.5920 H       1  ZINC000845755710    0.1500
     35 H35         4.1547    0.7624   49.1222 H       1  ZINC000845755710    0.1500
     36 H36         0.0368    0.7737   50.2380 H       1  ZINC000845755710    0.1400
     37 H37        -3.9646    4.7405   51.6801 H       1  ZINC000845755710    0.0800
     38 H38        -3.9511    3.0979   50.9882 H       1  ZINC000845755710    0.0900
     39 H39        -2.9969    2.1902   53.0527 H       1  ZINC000845755710    0.0700
     40 H40        -4.4565    3.1261   53.4571 H       1  ZINC000845755710    0.0800
     41 H41        -0.2580    3.8265   57.5877 H       1  ZINC000845755710    0.1100
     42 H42        -1.8679    3.1582   58.0183 H       1  ZINC000845755710    0.0800
     43 H43        -0.0073    2.3277   55.7234 H       1  ZINC000845755710    0.0800
     44 H44        -0.8895    1.2764   56.8786 H       1  ZINC000845755710    0.1000
@<TRIPOS>BOND
     1     1     2    1
     2     1    25    1
     3     1    26    1
     4     1    27    1
     5     2    24    1
     6     2     3    1
     7     2    21    1
     8     3    20    1
     9     3     4    1
    10     3    28    1
    11     4     5    1
    12     4    29    1
    13     4    30    1
    14     5     6    1
    15     5    31    1
    16     5    32    1
    17     6     7   am
    18     6    19    1
    19     7     8    2
    20     7     9    1
    21     9    18    1
    22     9    10    2
    23    10    11    1
    24    10    33    1
    25    11    12    1
    26    12    18   ar
    27    12    13   ar
    28    13    14   ar
    29    13    34    1
    30    14    15   ar
    31    14    35    1
    32    15    16    1
    33    15    17   ar
    34    17    18   ar
    35    17    36    1
    36    19    20    1
    37    19    37    1
    38    19    38    1
    39    20    39    1
    40    20    40    1
    41    21    22    1
    42    22    23    1
    43    22    41    1
    44    22    42    1
    45    23    24    1
    46    23    43    1
    47    23    44    1
@<TRIPOS>SUBSTRUCTURE
     1 ZINC000845755710        1 TEMP              0 ****  ****    0 ROOT


##########                                Name:    ZINC000302023461
##########                DOCK_Rotatable_Bonds:                   3
##########                         Heavy_Atoms:                  25
##########                    Molecular_Weight:             356.362
##########                DOCK_Rotatable_Bonds:                   3
##########                       Formal_Charge:        -2.08616e-07
##########                     HBond_Acceptors:                   9
##########                        HBond_Donors:                   1
##########                         Heavy_Atoms:                  25
##########                          Grid_Score:          -24.201565
##########                     Grid_vdw_energy:          -23.464743
##########                      Grid_es_energy:           -0.736823
##########           Internal_energy_repulsive:           19.057358

@<TRIPOS>MOLECULE
ZINC000302023461
 37 40 1 0 0
SMALL
USER_CHARGES


@<TRIPOS>ATOM
      1 O1        -12.0976   -3.3305   58.1607 O.2     1  ZINC000302023461   -0.1600
      2 N2        -11.8798   -2.1572   58.4047 N.pl3   1  ZINC000302023461    0.0200
      3 O3        -12.7535   -1.3266   58.2306 O.2     1  ZINC000302023461   -0.1300
      4 C4        -10.5551   -1.7416   58.9185 C.ar    1  ZINC000302023461    0.0000
      5 C5         -9.5642   -2.6823   59.1161 C.ar    1  ZINC000302023461   -0.0600
      6 C6         -8.3261   -2.2949   59.5961 C.ar    1  ZINC000302023461   -0.0900
      7 C7         -8.0761   -0.9646   59.8795 C.ar    1  ZINC000302023461   -0.0800
      8 C8         -9.0626   -0.0181   59.6842 C.ar    1  ZINC000302023461   -0.0500
      9 C9        -10.3057   -0.4029   59.1972 C.ar    1  ZINC000302023461   -0.1100
     10 S10       -11.5672    0.8013   58.9459 S.3     1  ZINC000302023461    0.1900
     11 C11       -11.1353    1.5094   57.3915 C.2     1  ZINC000302023461    0.2100
     12 N12       -11.7244    2.5424   56.8344 N.2     1  ZINC000302023461   -0.3200
     13 N13       -11.0742    2.7743   55.6114 N.pl3   1  ZINC000302023461   -0.4700
     14 C14       -10.1059    1.8359   55.5101 C.2     1  ZINC000302023461    0.3500
     15 C15        -9.1572    1.6826   54.3862 C.ar    1  ZINC000302023461   -0.0400
     16 C16        -9.1792    0.5271   53.6048 C.ar    1  ZINC000302023461   -0.0900
     17 C17        -8.2922    0.3859   52.5585 C.ar    1  ZINC000302023461   -0.1100
     18 C18        -7.3751    1.3901   52.2783 C.ar    1  ZINC000302023461    0.0800
     19 O19        -6.5035    1.2257   51.2463 O.3     1  ZINC000302023461   -0.3000
     20 C20        -5.8506    2.4036   50.7607 C.3     1  ZINC000302023461    0.0200
     21 C21        -5.3384    3.2016   51.9673 C.3     1  ZINC000302023461    0.0200
     22 O22        -6.4608    3.5429   52.7879 O.3     1  ZINC000302023461   -0.3000
     23 C23        -7.3504    2.5468   53.0523 C.ar    1  ZINC000302023461    0.0500
     24 C24        -8.2411    2.6958   54.1007 C.ar    1  ZINC000302023461   -0.0500
     25 N25       -10.1529    1.0859   56.5933 N.2     1  ZINC000302023461   -0.5000
     26 H26        -9.7560   -3.7221   58.8959 H       1  ZINC000302023461    0.1600
     27 H27        -7.5530   -3.0330   59.7504 H       1  ZINC000302023461    0.1500
     28 H28        -7.1083   -0.6656   60.2541 H       1  ZINC000302023461    0.1500
     29 H29        -8.8669    1.0206   59.9063 H       1  ZINC000302023461    0.1600
     30 H30       -11.2793    3.4698   54.9670 H       1  ZINC000302023461    0.4400
     31 H31        -9.8905   -0.2568   53.8195 H       1  ZINC000302023461    0.1300
     32 H32        -8.3106   -0.5095   51.9547 H       1  ZINC000302023461    0.1500
     33 H33        -5.0124    2.1228   50.1231 H       1  ZINC000302023461    0.1300
     34 H34        -6.5580    3.0086   50.1934 H       1  ZINC000302023461    0.0800
     35 H35        -4.6364    2.5942   52.5386 H       1  ZINC000302023461    0.0800
     36 H36        -4.8442    4.1105   51.6239 H       1  ZINC000302023461    0.1300
     37 H37        -8.2245    3.5940   54.7003 H       1  ZINC000302023461    0.1600
@<TRIPOS>BOND
     1     1     2    2
     2     2     3    2
     3     2     4    1
     4     4     9   ar
     5     4     5   ar
     6     5     6   ar
     7     5    26    1
     8     6     7   ar
     9     6    27    1
    10     7     8   ar
    11     7    28    1
    12     8     9   ar
    13     8    29    1
    14     9    10    1
    15    10    11    1
    16    11    25    1
    17    11    12    2
    18    12    13    1
    19    13    14    1
    20    13    30    1
    21    14    15    1
    22    14    25    2
    23    15    24   ar
    24    15    16   ar
    25    16    17   ar
    26    16    31    1
    27    17    18   ar
    28    17    32    1
    29    18    23   ar
    30    18    19    1
    31    19    20    1
    32    20    21    1
    33    20    33    1
    34    20    34    1
    35    21    22    1
    36    21    35    1
    37    21    36    1
    38    22    23    1
    39    23    24   ar
    40    24    37    1
@<TRIPOS>SUBSTRUCTURE
     1 ZINC000302023461        1 TEMP              0 ****  ****    0 ROOT


##########                                Name:    ZINC000326056918
##########                DOCK_Rotatable_Bonds:                   6
##########                         Heavy_Atoms:                  24
##########                    Molecular_Weight:             408.326
##########                DOCK_Rotatable_Bonds:                   6
##########                       Formal_Charge:         -0.00999978
##########                     HBond_Acceptors:                   9
##########                        HBond_Donors:                   0
##########                         Heavy_Atoms:                  24
##########                          Grid_Score:          -24.188921
##########                     Grid_vdw_energy:          -23.796331
##########                      Grid_es_energy:           -0.392590
##########           Internal_energy_repulsive:           23.284248

@<TRIPOS>MOLECULE
ZINC000326056918
 39 40 1 0 0
SMALL
USER_CHARGES


@<TRIPOS>ATOM
      1 C1         -8.0217   -1.7575   59.8699 C.3     1  ZINC000326056918    0.0400
      2 O2         -9.3260   -2.2944   59.5254 O.3     1  ZINC000326056918   -0.3500
      3 C3        -10.3526   -1.4210   59.4701 C.2     1  ZINC000326056918    0.5000
      4 O4        -10.1323   -0.2258   59.4217 O.2     1  ZINC000326056918   -0.4300
      5 C5        -11.7318   -1.9116   59.4685 C.2     1  ZINC000326056918   -0.1600
      6 C6        -12.5100   -2.0878   58.3579 C.2     1  ZINC000326056918   -0.6200
      7 S7        -11.9551   -1.7423   56.7215 S.o2    1  ZINC000326056918    2.6900
      8 O8        -10.5392   -1.6443   56.7902 O.2     1  ZINC000326056918   -0.9100
      9 O9        -12.6305   -2.6555   55.8676 O.2     1  ZINC000326056918   -0.9400
     10 N10       -12.5095   -0.2332   56.3243 N.am    1  ZINC000326056918   -0.9900
     11 C11       -13.3046    0.5321   57.2876 C.3     1  ZINC000326056918    0.0900
     12 C12       -12.2049    0.3364   55.0093 C.3     1  ZINC000326056918    0.1500
     13 C13       -10.8199    0.9301   55.0278 C.ar    1  ZINC000326056918   -0.0900
     14 C14       -10.5326    1.9871   55.8705 C.ar    1  ZINC000326056918   -0.0800
     15 C15        -9.2625    2.5326   55.8878 C.ar    1  ZINC000326056918   -0.1100
     16 C16        -8.2782    2.0205   55.0616 C.ar    1  ZINC000326056918   -0.0200
     17 Cl17       -6.6832    2.7053   55.0838 Cl      1  ZINC000326056918   -0.0600
     18 C18        -8.5651    0.9621   54.2181 C.ar    1  ZINC000326056918   -0.1100
     19 C19        -9.8346    0.4133   54.2051 C.ar    1  ZINC000326056918   -0.0300
     20 Cl20      -10.1954   -0.9151   53.1473 Cl      1  ZINC000326056918   -0.0100
     21 C21       -13.7674   -2.5618   58.6450 C.2     1  ZINC000326056918   -0.0400
     22 C22       -14.7939   -2.8306   57.5750 C.3     1  ZINC000326056918   -0.1100
     23 C23       -14.0137   -2.7677   59.9445 C.2     1  ZINC000326056918   -0.2600
     24 S24       -12.6511   -2.3762   60.8936 S.3     1  ZINC000326056918    0.3100
     25 H25        -7.2879   -2.5636   59.8791 H       1  ZINC000326056918    0.1100
     26 H26        -7.7303   -1.0095   59.1326 H       1  ZINC000326056918    0.0700
     27 H27        -8.0674   -1.2966   60.8567 H       1  ZINC000326056918    0.0700
     28 H28       -12.6387    1.0679   57.9642 H       1  ZINC000326056918    0.0600
     29 H29       -13.9324    1.2462   56.7548 H       1  ZINC000326056918    0.0700
     30 H30       -13.9344   -0.1483   57.8610 H       1  ZINC000326056918    0.0900
     31 H31       -12.2540   -0.4475   54.2536 H       1  ZINC000326056918    0.1100
     32 H32       -12.9307    1.1146   54.7734 H       1  ZINC000326056918    0.0900
     33 H33       -11.3008    2.3873   56.5157 H       1  ZINC000326056918    0.1400
     34 H34        -9.0388    3.3591   56.5461 H       1  ZINC000326056918    0.1400
     35 H35        -7.7969    0.5619   53.5729 H       1  ZINC000326056918    0.1500
     36 H36       -14.6225   -3.8184   57.1470 H       1  ZINC000326056918    0.0900
     37 H37       -15.7921   -2.7918   58.0112 H       1  ZINC000326056918    0.0700
     38 H38       -14.7096   -2.0761   56.7928 H       1  ZINC000326056918    0.0900
     39 H39       -14.9491   -3.1362   60.3391 H       1  ZINC000326056918    0.1800
@<TRIPOS>BOND
     1     1     2    1
     2     1    25    1
     3     1    26    1
     4     1    27    1
     5     2     3    1
     6     3     4    2
     7     3     5    1
     8     5    24    1
     9     5     6    2
    10     6     7    1
    11     6    21    1
    12     7     8    2
    13     7     9    2
    14     7    10   am
    15    10    11    1
    16    10    12    1
    17    11    28    1
    18    11    29    1
    19    11    30    1
    20    12    13    1
    21    12    31    1
    22    12    32    1
    23    13    19   ar
    24    13    14   ar
    25    14    15   ar
    26    14    33    1
    27    15    16   ar
    28    15    34    1
    29    16    17    1
    30    16    18   ar
    31    18    19   ar
    32    18    35    1
    33    19    20    1
    34    21    22    1
    35    21    23    2
    36    22    36    1
    37    22    37    1
    38    22    38    1
    39    23    24    1
    40    23    39    1
@<TRIPOS>SUBSTRUCTURE
     1 ZINC000326056918        1 TEMP              0 ****  ****    0 ROOT


##########                                Name:      oleObject5.pdb
##########                DOCK_Rotatable_Bonds:                   5
##########                         Heavy_Atoms:                  24
##########                    Molecular_Weight:             323.438
##########                DOCK_Rotatable_Bonds:                   5
##########                       Formal_Charge:         0.000200074
##########                     HBond_Acceptors:                   4
##########                        HBond_Donors:                   2
##########                         Heavy_Atoms:                  24
##########                          Grid_Score:          -24.182022
##########                     Grid_vdw_energy:          -24.828415
##########                      Grid_es_energy:            0.646394
##########           Internal_energy_repulsive:           13.100400

@<TRIPOS>MOLECULE
oleObject5.pdb
 49 51 1 0 0
SMALL
NO_CHARGES


@<TRIPOS>ATOM
      1 C          -0.0470    5.3101   52.6000 C.3     1  UNL        -0.0394
      2 C          -0.8005    4.4040   53.5690 C.ar    1  UNL        -0.0456
      3 C          -0.3635    4.3630   54.9077 C.ar    1  UNL        -0.0590
      4 C          -0.9960    3.5360   55.8466 C.ar    1  UNL        -0.0620
      5 C          -2.0734    2.7335   55.4523 C.ar    1  UNL        -0.0619
      6 C          -2.5161    2.7634   54.1222 C.ar    1  UNL        -0.0565
      7 C          -1.8977    3.5981   53.1670 C.ar    1  UNL        -0.0188
      8 C          -2.4137    3.5594   51.7221 C.3     1  UNL         0.0906
      9 N          -1.6016    2.6127   50.9374 N.am    1  UNL        -0.3025
     10 C          -1.7303    2.4632   49.5683 C.2     1  UNL         0.2156
     11 O          -2.4077    3.2212   48.8956 O.2     1  UNL        -0.2774
     12 C          -0.7774    1.4155   48.9619 C.3     1  UNL         0.0382
     13 C           0.5630    1.3465   49.7414 C.3     1  UNL        -0.0292
     14 C           1.4626    2.5655   49.4420 C.3     1  UNL        -0.0041
     15 N           1.7127    2.6862   47.9954 N.4     1  UNL        -0.3167
     16 C           0.4809    2.8235   47.1981 C.3     1  UNL        -0.0041
     17 C          -0.4995    1.6508   47.4517 C.3     1  UNL        -0.0292
     18 C          -3.9194    3.2499   51.6605 C.ar    1  UNL         0.0681
     19 N          -4.2687    2.0320   51.1795 N.ar    1  UNL        -0.2587
     20 C          -5.5708    1.6974   51.1089 C.ar    1  UNL         0.0272
     21 C          -6.5969    2.5609   51.5192 C.ar    1  UNL        -0.0435
     22 C          -6.2508    3.8224   52.0240 C.ar    1  UNL        -0.0559
     23 C          -4.8920    4.1824   52.1013 C.ar    1  UNL        -0.0272
     24 C          -4.5154    5.5496   52.6582 C.3     1  UNL        -0.0379
     25 H           0.6706    5.9532   53.1244 H       1  UNL         0.0280
     26 H          -0.7239    5.9737   52.0508 H       1  UNL         0.0280
     27 H           0.5226    4.7218   51.8725 H       1  UNL         0.0280
     28 H           0.4778    4.9731   55.2247 H       1  UNL         0.0626
     29 H          -0.6474    3.5134   56.8751 H       1  UNL         0.0623
     30 H          -2.5626    2.0856   56.1741 H       1  UNL         0.0623
     31 H          -3.3448    2.1242   53.8328 H       1  UNL         0.0627
     32 H          -2.2820    4.5423   51.2603 H       1  UNL         0.0624
     33 H          -0.7043    2.3706   51.3369 H       1  UNL         0.1504
     34 H          -1.2812    0.4455   49.0633 H       1  UNL         0.0402
     35 H           1.0987    0.4333   49.4514 H       1  UNL         0.0288
     36 H           0.3849    1.2715   50.8214 H       1  UNL         0.0288
     37 H           2.4154    2.4554   49.9749 H       1  UNL         0.0428
     38 H           0.9757    3.4772   49.8121 H       1  UNL         0.0428
     39 H           2.2195    1.8599   47.6798 H       1  UNL         0.1222
     40 H           0.7344    2.8601   46.1311 H       1  UNL         0.0428
     41 H          -0.0093    3.7721   47.4502 H       1  UNL         0.0428
     42 H          -0.0641    0.7368   47.0276 H       1  UNL         0.0288
     43 H          -1.4409    1.8262   46.9151 H       1  UNL         0.0288
     44 H          -5.7969    0.7085   50.7122 H       1  UNL         0.0840
     45 H          -7.6372    2.2577   51.4486 H       1  UNL         0.0639
     46 H          -7.0274    4.5080   52.3512 H       1  UNL         0.0627
     47 H          -5.4027    6.1269   52.9466 H       1  UNL         0.0280
     48 H          -3.9691    6.1428   51.9148 H       1  UNL         0.0280
     49 H          -3.8869    5.4519   53.5517 H       1  UNL         0.0280
@<TRIPOS>BOND
     1     1     2    1
     2     1    25    1
     3     1    26    1
     4     1    27    1
     5     2     3   ar
     6     2     7   ar
     7     3     4   ar
     8     3    28    1
     9     4     5   ar
    10     4    29    1
    11     5     6   ar
    12     5    30    1
    13     6     7   ar
    14     6    31    1
    15     7     8    1
    16     8     9    1
    17     8    18    1
    18     8    32    1
    19     9    10   am
    20     9    33    1
    21    10    11    2
    22    10    12    1
    23    12    13    1
    24    12    17    1
    25    12    34    1
    26    13    14    1
    27    13    35    1
    28    13    36    1
    29    14    15    1
    30    14    37    1
    31    14    38    1
    32    15    16    1
    33    15    39    1
    34    16    17    1
    35    16    40    1
    36    16    41    1
    37    17    42    1
    38    17    43    1
    39    18    19   ar
    40    18    23   ar
    41    19    20   ar
    42    20    21   ar
    43    20    44    1
    44    21    22   ar
    45    21    45    1
    46    22    23   ar
    47    22    46    1
    48    23    24    1
    49    24    47    1
    50    24    48    1
    51    24    49    1
@<TRIPOS>SUBSTRUCTURE
     1 UNL         1 TEMP              0 ****  ****    0 ROOT


##########                                Name:    ZINC000375477402
##########                DOCK_Rotatable_Bonds:                   5
##########                         Heavy_Atoms:                  26
##########                    Molecular_Weight:             378.342
##########                DOCK_Rotatable_Bonds:                   5
##########                       Formal_Charge:         -1.2666e-07
##########                     HBond_Acceptors:                   9
##########                        HBond_Donors:                   1
##########                         Heavy_Atoms:                  26
##########                          Grid_Score:          -24.169800
##########                     Grid_vdw_energy:          -22.908897
##########                      Grid_es_energy:           -1.260903
##########           Internal_energy_repulsive:            6.863481

@<TRIPOS>MOLECULE
ZINC000375477402
 45 47 1 0 0
SMALL
USER_CHARGES


@<TRIPOS>ATOM
      1 O1        -14.9130    0.7889   51.0559 O.2     1  ZINC000375477402   -0.5600
      2 C2        -13.7484    0.7632   50.7074 C.2     1  ZINC000375477402    0.7200
      3 N3        -13.4348    0.8366   49.3987 N.am    1  ZINC000375477402   -0.7300
      4 C4        -14.4974    0.9413   48.3956 C.3     1  ZINC000375477402    0.1800
      5 H5        -15.4441    1.1585   48.8904 H       1  ZINC000375477402    0.1500
      6 C6        -14.1691    2.0508   47.4301 C.ar    1  ZINC000375477402   -0.1300
      7 C7        -12.8777    2.1983   46.9599 C.ar    1  ZINC000375477402   -0.0800
      8 C8        -12.5749    3.2156   46.0741 C.ar    1  ZINC000375477402   -0.0900
      9 C9        -13.5629    4.0875   45.6568 C.ar    1  ZINC000375477402   -0.1100
     10 C10       -14.8570    3.9425   46.1258 C.ar    1  ZINC000375477402    0.0800
     11 F11       -15.8234    4.7943   45.7183 F       1  ZINC000375477402   -0.1200
     12 C12       -15.1619    2.9187   47.0097 C.ar    1  ZINC000375477402    0.1000
     13 F13       -16.4244    2.7752   47.4688 F       1  ZINC000375477402   -0.1100
     14 C14       -14.6116   -0.3806   47.6338 C.3     1  ZINC000375477402    0.4400
     15 F15       -13.3319   -0.8908   47.3907 F       1  ZINC000375477402   -0.1600
     16 F16       -15.3419   -1.2974   48.3975 F       1  ZINC000375477402   -0.1700
     17 F17       -15.2655   -0.1622   46.4163 F       1  ZINC000375477402   -0.1800
     18 N18       -12.7709    0.6668   51.6302 N.am    1  ZINC000375477402   -0.6300
     19 C19       -12.9709    0.5804   53.0889 C.3     1  ZINC000375477402    0.1000
     20 C20       -11.6932   -0.1140   53.6262 C.3     1  ZINC000375477402   -0.1200
     21 C21       -10.6078    0.4767   52.6990 C.3     1  ZINC000375477402   -0.1100
     22 C22       -11.3266    0.6238   51.3493 C.3     1  ZINC000375477402    0.1400
     23 C23       -10.1493    1.8320   53.2226 C.3     1  ZINC000375477402   -0.1100
     24 C24        -9.0286    2.3658   52.3227 C.3     1  ZINC000375477402   -0.1600
     25 C25        -7.9027    1.3302   52.2588 C.3     1  ZINC000375477402    0.0600
     26 O26        -8.4185    0.0949   51.7585 O.3     1  ZINC000375477402   -0.3800
     27 C27        -9.4349   -0.4869   52.5797 C.3     1  ZINC000375477402    0.0800
     28 H28       -12.5055    0.8201   49.1210 H       1  ZINC000375477402    0.4000
     29 H29       -12.1044    1.5182   47.2851 H       1  ZINC000375477402    0.1400
     30 H30       -11.5653    3.3295   45.7081 H       1  ZINC000375477402    0.1500
     31 H31       -13.3251    4.8820   44.9651 H       1  ZINC000375477402    0.1500
     32 H32       -13.0693    1.5776   53.5178 H       1  ZINC000375477402    0.0700
     33 H33       -13.8523   -0.0195   53.3158 H       1  ZINC000375477402    0.0700
     34 H34       -11.5089    0.1568   54.6658 H       1  ZINC000375477402    0.0900
     35 H35       -11.7587   -1.1959   53.5115 H       1  ZINC000375477402    0.0800
     36 H36       -11.0923   -0.2269   50.7093 H       1  ZINC000375477402    0.0800
     37 H37       -11.0209    1.5512   50.8650 H       1  ZINC000375477402    0.0700
     38 H38       -10.9873    2.5289   53.2129 H       1  ZINC000375477402    0.0700
     39 H39        -9.7774    1.7222   54.2412 H       1  ZINC000375477402    0.0700
     40 H40        -9.4187    2.5424   51.3204 H       1  ZINC000375477402    0.0700
     41 H41        -8.6431    3.2984   52.7349 H       1  ZINC000375477402    0.0800
     42 H42        -7.1154    1.6900   51.5965 H       1  ZINC000375477402    0.1000
     43 H43        -7.4945    1.1754   53.2576 H       1  ZINC000375477402    0.0500
     44 H44        -9.0292   -0.6893   53.5709 H       1  ZINC000375477402    0.0600
     45 H45        -9.7755   -1.4195   52.1299 H       1  ZINC000375477402    0.1000
@<TRIPOS>BOND
     1     1     2    2
     2     2     3   am
     3     2    18   am
     4     3     4    1
     5     3    28    1
     6     4     5    1
     7     4     6    1
     8     4    14    1
     9     6    12   ar
    10     6     7   ar
    11     7     8   ar
    12     7    29    1
    13     8     9   ar
    14     8    30    1
    15     9    10   ar
    16     9    31    1
    17    10    11    1
    18    10    12   ar
    19    12    13    1
    20    14    15    1
    21    14    16    1
    22    14    17    1
    23    18    22    1
    24    18    19    1
    25    19    20    1
    26    19    32    1
    27    19    33    1
    28    20    21    1
    29    20    34    1
    30    20    35    1
    31    21    27    1
    32    21    22    1
    33    21    23    1
    34    22    36    1
    35    22    37    1
    36    23    24    1
    37    23    38    1
    38    23    39    1
    39    24    25    1
    40    24    40    1
    41    24    41    1
    42    25    26    1
    43    25    42    1
    44    25    43    1
    45    26    27    1
    46    27    44    1
    47    27    45    1
@<TRIPOS>SUBSTRUCTURE
     1 ZINC000375477402        1 TEMP              0 ****  ****    0 ROOT


##########                                Name:    ZINC000286156371
##########                DOCK_Rotatable_Bonds:                   7
##########                         Heavy_Atoms:                  25
##########                    Molecular_Weight:             350.418
##########                DOCK_Rotatable_Bonds:                   7
##########                       Formal_Charge:          0.00999908
##########                     HBond_Acceptors:                   8
##########                        HBond_Donors:                   2
##########                         Heavy_Atoms:                  25
##########                          Grid_Score:          -24.154650
##########                     Grid_vdw_energy:          -23.424017
##########                      Grid_es_energy:           -0.730633
##########           Internal_energy_repulsive:           11.651585

@<TRIPOS>MOLECULE
ZINC000286156371
 51 53 1 0 0
SMALL
USER_CHARGES


@<TRIPOS>ATOM
      1 C1          0.8559    3.7559   57.5693 C.3     1  <0>        -0.1800
      2 C2         -0.6114    3.3875   57.3400 C.3     1  <0>         0.1400
      3 C3         -1.0639    2.4007   58.4180 C.3     1  <0>        -0.1800
      4 C4         -1.4714    4.6509   57.4116 C.3     1  <0>        -0.1400
      5 O5         -0.7580    2.7757   56.0315 O.3     1  <0>        -0.3600
      6 C6         -0.9104    3.6055   54.9822 C.2     1  <0>         0.6800
      7 O7          0.0296    4.2685   54.5905 O.2     1  <0>        -0.5600
      8 N8         -2.1054    3.7009   54.3665 N.am    1  <0>        -0.5800
      9 C9         -3.3241    2.9579   54.7360 C.3     1  <0>         0.0700
     10 C10        -4.4931    3.8234   54.2029 C.3     1  <0>         0.0900
     11 H11        -5.3777    3.2139   54.0183 H       1  <0>         0.0900
     12 O12        -4.7899    4.8932   55.1025 O.3     1  <0>        -0.5500
     13 C13        -3.9012    4.3615   52.8734 C.3     1  <0>        -0.1200
     14 C14        -2.4115    4.5678   53.2192 C.3     1  <0>         0.1500
     15 H15        -2.2322    5.6112   53.4784 H       1  <0>         0.1100
     16 C16        -1.5536    4.1773   52.0433 C.2     1  <0>         0.5200
     17 O17        -0.9736    5.0306   51.4058 O.2     1  <0>        -0.4900
     18 N18        -1.4310    2.8797   51.7002 N.am    1  <0>        -0.6300
     19 C19        -0.6318    2.5162   50.6076 C.2     1  <0>         0.3000
     20 N20         0.5548    1.9557   50.6725 N.2     1  <0>        -0.3200
     21 N21         1.0117    1.7548   49.3681 N.pl3   1  <0>        -0.3600
     22 C22         2.2839    1.1571   48.9512 C.3     1  <0>         0.1400
     23 C23         2.1772    0.7456   47.4791 C.3     1  <0>        -0.1400
     24 C24         1.6517    1.9241   46.6542 C.3     1  <0>        -0.1300
     25 C25         0.1814    2.1755   47.0135 C.3     1  <0>        -0.0600
     26 C26         0.0639    2.2125   48.5174 C.2     1  <0>         0.0900
     27 C27        -0.9631    2.6822   49.2515 C.2     1  <0>        -0.2600
     28 H28         1.4687    2.8559   57.5183 H       1  <0>         0.0900
     29 H29         1.1782    4.4589   56.8013 H       1  <0>         0.0600
     30 H30         0.9660    4.2152   58.5516 H       1  <0>         0.0700
     31 H31        -0.9538    2.8600   59.4004 H       1  <0>         0.0700
     32 H32        -2.1092    2.1384   58.2548 H       1  <0>         0.0600
     33 H33        -0.4511    1.5007   58.3671 H       1  <0>         0.0900
     34 H34        -1.1491    5.3539   56.6435 H       1  <0>         0.0700
     35 H35        -2.5167    4.3885   57.2483 H       1  <0>         0.0700
     36 H36        -1.3614    5.1102   58.3939 H       1  <0>         0.0800
     37 H37        -3.3298    1.9776   54.2594 H       1  <0>         0.0800
     38 H38        -3.3917    2.8546   55.8190 H       1  <0>         0.0900
     39 H39        -4.0091    5.3636   55.4254 H       1  <0>         0.3900
     40 H40        -4.0177    3.6288   52.0749 H       1  <0>         0.1000
     41 H41        -4.3660    5.3088   52.5999 H       1  <0>         0.1100
     42 H42        -1.8958    2.1973   52.2093 H       1  <0>         0.4200
     43 H43         3.0860    1.8856   49.0698 H       1  <0>         0.0800
     44 H44         2.4923    0.2787   49.5620 H       1  <0>         0.0900
     45 H45         3.1612    0.4550   47.1110 H       1  <0>         0.0900
     46 H46         1.4918   -0.0968   47.3862 H       1  <0>         0.0800
     47 H47         2.2386    2.8152   46.8772 H       1  <0>         0.0700
     48 H48         1.7323    1.6903   45.5926 H       1  <0>         0.0800
     49 H49        -0.1415    3.1291   46.5958 H       1  <0>         0.0900
     50 H50        -0.4371    1.3708   46.6159 H       1  <0>         0.0900
     51 H51        -1.8764    3.1117   48.8671 H       1  <0>         0.1700
@<TRIPOS>BOND
     1     1     2    1
     2     1    28    1
     3     1    29    1
     4     1    30    1
     5     2     3    1
     6     2     4    1
     7     2     5    1
     8     3    31    1
     9     3    32    1
    10     3    33    1
    11     4    34    1
    12     4    35    1
    13     4    36    1
    14     5     6    1
    15     6     7    2
    16     6     8   am
    17     8    14    1
    18     8     9    1
    19     9    10    1
    20     9    37    1
    21     9    38    1
    22    10    11    1
    23    10    12    1
    24    10    13    1
    25    12    39    1
    26    13    14    1
    27    13    40    1
    28    13    41    1
    29    14    15    1
    30    14    16    1
    31    16    17    2
    32    16    18   am
    33    18    19    1
    34    18    42    1
    35    19    27    1
    36    19    20    2
    37    20    21    1
    38    21    26    1
    39    21    22    1
    40    22    23    1
    41    22    43    1
    42    22    44    1
    43    23    24    1
    44    23    45    1
    45    23    46    1
    46    24    25    1
    47    24    47    1
    48    24    48    1
    49    25    26    1
    50    25    49    1
    51    25    50    1
    52    26    27    2
    53    27    51    1
@<TRIPOS>SUBSTRUCTURE
     1 <0>         1 TEMP              0 ****  ****    0 ROOT


##########                                Name:    ZINC000477669194
##########                DOCK_Rotatable_Bonds:                   6
##########                         Heavy_Atoms:                  26
##########                    Molecular_Weight:             387.483
##########                DOCK_Rotatable_Bonds:                   6
##########                       Formal_Charge:         4.47035e-07
##########                     HBond_Acceptors:                   8
##########                        HBond_Donors:                   2
##########                         Heavy_Atoms:                  26
##########                          Grid_Score:          -24.152107
##########                     Grid_vdw_energy:          -23.181658
##########                      Grid_es_energy:           -0.970450
##########           Internal_energy_repulsive:           36.355118

@<TRIPOS>MOLECULE
ZINC000477669194
 43 45 1 0 0
SMALL
USER_CHARGES


@<TRIPOS>ATOM
      1 C1         -5.8041    1.6118   50.8129 C.3     1  ZINC000477669194   -0.0800
      2 C2         -4.5847    2.3165   51.3490 C.2     1  ZINC000477669194    0.0500
      3 N3         -4.3916    2.6100   52.5883 N.2     1  ZINC000477669194   -0.4900
      4 C4         -3.2617    3.2317   52.8930 C.2     1  ZINC000477669194    0.1200
      5 C5         -2.9073    3.6295   54.2770 C.ar    1  ZINC000477669194   -0.0600
      6 C6         -1.7306    4.3319   54.5234 C.ar    1  ZINC000477669194   -0.0800
      7 C7         -1.4049    4.7000   55.8138 C.ar    1  ZINC000477669194   -0.1400
      8 C8         -2.2435    4.3739   56.8647 C.ar    1  ZINC000477669194   -0.0900
      9 C9         -3.4142    3.6766   56.6327 C.ar    1  ZINC000477669194   -0.1300
     10 C10        -3.7572    3.3057   55.3412 C.ar    1  ZINC000477669194    0.1800
     11 N11        -4.9408    2.6011   55.1046 N.am    1  ZINC000477669194   -0.6500
     12 C12        -6.1322    3.1948   55.3154 C.2     1  ZINC000477669194    0.5600
     13 O13        -6.1774    4.3438   55.7114 O.2     1  ZINC000477669194   -0.5200
     14 C14        -7.3812    2.4513   55.0657 C.ar    1  ZINC000477669194   -0.1500
     15 C15        -8.0208    1.7841   56.1148 C.ar    1  ZINC000477669194   -0.0600
     16 C16        -9.1863    1.0916   55.8787 C.ar    1  ZINC000477669194   -0.1400
     17 C17        -9.7286    1.0550   54.5970 C.ar    1  ZINC000477669194    0.1700
     18 N18       -10.9064    0.3542   54.3618 N.am    1  ZINC000477669194   -1.0600
     19 S19       -11.7706   -0.2627   55.6327 S.o2    1  ZINC000477669194    2.6100
     20 C20       -12.2023    1.1876   56.6330 C.3     1  ZINC000477669194   -0.6700
     21 O21       -12.9322   -0.8168   55.0304 O.2     1  ZINC000477669194   -0.9400
     22 O22       -10.8398   -1.0854   56.3228 O.2     1  ZINC000477669194   -0.9500
     23 C23        -9.0943    1.7186   53.5504 C.ar    1  ZINC000477669194   -0.1600
     24 C24        -7.9312    2.4169   53.7809 C.ar    1  ZINC000477669194   -0.0300
     25 C25        -2.4623    3.4705   51.8335 C.2     1  ZINC000477669194   -0.2600
     26 S26        -3.2607    2.8316   50.3988 S.3     1  ZINC000477669194    0.1500
     27 H27        -5.7064    1.4859   49.7346 H       1  ZINC000477669194    0.0800
     28 H28        -5.8962    0.6342   51.2860 H       1  ZINC000477669194    0.0900
     29 H29        -6.6919    2.2057   51.0303 H       1  ZINC000477669194    0.0900
     30 H30        -1.0728    4.5881   53.7060 H       1  ZINC000477669194    0.1300
     31 H31        -0.4916    5.2443   56.0035 H       1  ZINC000477669194    0.1300
     32 H32        -1.9821    4.6652   57.8712 H       1  ZINC000477669194    0.1300
     33 H33        -4.0645    3.4243   57.4572 H       1  ZINC000477669194    0.1500
     34 H34        -4.9047    1.6847   54.7888 H       1  ZINC000477669194    0.4200
     35 H35        -7.6006    1.8119   57.1092 H       1  ZINC000477669194    0.1300
     36 H36        -9.6807    0.5757   56.6885 H       1  ZINC000477669194    0.1400
     37 H37       -11.2218    0.2268   53.4535 H       1  ZINC000477669194    0.4300
     38 H38       -12.8695    1.8356   56.0646 H       1  ZINC000477669194    0.1300
     39 H39       -12.7015    0.8636   57.5462 H       1  ZINC000477669194    0.1400
     40 H40       -11.2953    1.7351   56.8894 H       1  ZINC000477669194    0.1300
     41 H41        -9.5177    1.6886   52.5572 H       1  ZINC000477669194    0.1700
     42 H42        -7.4398    2.9318   52.9686 H       1  ZINC000477669194    0.1500
     43 H43        -1.5014    3.9626   51.8602 H       1  ZINC000477669194    0.1800
@<TRIPOS>BOND
     1     1     2    1
     2     1    27    1
     3     1    28    1
     4     1    29    1
     5     2    26    1
     6     2     3    2
     7     3     4    1
     8     4     5    1
     9     4    25    2
    10     5    10   ar
    11     5     6   ar
    12     6     7   ar
    13     6    30    1
    14     7     8   ar
    15     7    31    1
    16     8     9   ar
    17     8    32    1
    18     9    10   ar
    19     9    33    1
    20    10    11    1
    21    11    12   am
    22    11    34    1
    23    12    13    2
    24    12    14    1
    25    14    24   ar
    26    14    15   ar
    27    15    16   ar
    28    15    35    1
    29    16    17   ar
    30    16    36    1
    31    17    18    1
    32    17    23   ar
    33    18    19   am
    34    18    37    1
    35    19    20    1
    36    19    21    2
    37    19    22    2
    38    20    38    1
    39    20    39    1
    40    20    40    1
    41    23    24   ar
    42    23    41    1
    43    24    42    1
    44    25    26    1
    45    25    43    1
@<TRIPOS>SUBSTRUCTURE
     1 ZINC000477669194        1 TEMP              0 ****  ****    0 ROOT


##########                                Name:    ZINC000341804698
##########                DOCK_Rotatable_Bonds:                   7
##########                         Heavy_Atoms:                  24
##########                    Molecular_Weight:             342.318
##########                DOCK_Rotatable_Bonds:                   7
##########                       Formal_Charge:                0.02
##########                     HBond_Acceptors:                   8
##########                        HBond_Donors:                   0
##########                         Heavy_Atoms:                  24
##########                          Grid_Score:          -24.137440
##########                     Grid_vdw_energy:          -23.129158
##########                      Grid_es_energy:           -1.008281
##########           Internal_energy_repulsive:           15.397495

@<TRIPOS>MOLECULE
ZINC000341804698
 41 42 1 0 0
SMALL
USER_CHARGES


@<TRIPOS>ATOM
      1 C1          2.4248   -1.0411   48.4025 C.3     1  ZINC000341804698    0.0300
      2 O2          2.0493    0.2308   47.8703 O.3     1  ZINC000341804698   -0.3900
      3 C3          2.1428    1.3042   48.8090 C.3     1  ZINC000341804698    0.0700
      4 C4          0.7653    1.9451   48.9897 C.3     1  ZINC000341804698    0.0400
      5 C5         -0.1331    1.4874   47.9172 C.1     1  ZINC000341804698    0.2200
      6 N6         -0.8264    1.1342   47.0896 N.1     1  ZINC000341804698   -0.4200
      7 C7          0.1876    1.5378   50.3470 C.3     1  ZINC000341804698   -0.1200
      8 C8         -1.2060    2.1531   50.5097 C.3     1  ZINC000341804698    0.1100
      9 N9         -1.1085    3.6050   50.3065 N.am    1  ZINC000341804698   -0.6000
     10 C10        -1.5808    4.4614   51.2339 C.2     1  ZINC000341804698    0.5700
     11 O11        -1.4942    5.6604   51.0540 O.2     1  ZINC000341804698   -0.5200
     12 C12        -2.2043    3.9425   52.4700 C.ar    1  ZINC000341804698   -0.0900
     13 C13        -3.5813    3.7209   52.5201 C.ar    1  ZINC000341804698   -0.1100
     14 C14        -4.1600    3.2366   53.6756 C.ar    1  ZINC000341804698   -0.0800
     15 C15        -3.3799    2.9697   54.7851 C.ar    1  ZINC000341804698   -0.1700
     16 C16        -2.0091    3.1874   54.7449 C.ar    1  ZINC000341804698    0.1100
     17 O17        -1.2470    2.9236   55.8389 O.3     1  ZINC000341804698   -0.3100
     18 C18        -1.7422    3.3792   57.0997 C.3     1  ZINC000341804698    0.6000
     19 F19        -0.6667    3.6607   57.9490 F       1  ZINC000341804698   -0.1600
     20 F20        -2.5031    4.5377   56.9108 F       1  ZINC000341804698   -0.1300
     21 F21        -2.5415    2.3847   57.6735 F       1  ZINC000341804698   -0.1600
     22 C22        -1.4174    3.6671   53.5888 C.ar    1  ZINC000341804698   -0.0700
     23 C23        -0.4859    4.1055   49.0735 C.3     1  ZINC000341804698    0.0900
     24 C24         0.8995    3.4684   48.9269 C.3     1  ZINC000341804698   -0.1200
     25 H25         3.4592   -1.0013   48.7436 H       1  ZINC000341804698    0.0400
     26 H26         1.7750   -1.2901   49.2416 H       1  ZINC000341804698    0.0500
     27 H27         2.3264   -1.8022   47.6285 H       1  ZINC000341804698    0.0900
     28 H28         2.4931    0.9197   49.7668 H       1  ZINC000341804698    0.0700
     29 H29         2.8451    2.0508   48.4383 H       1  ZINC000341804698    0.0600
     30 H30         0.1140    0.4516   50.3999 H       1  ZINC000341804698    0.1000
     31 H31         0.8395    1.8980   51.1429 H       1  ZINC000341804698    0.0900
     32 H32        -1.8829    1.7253   49.7702 H       1  ZINC000341804698    0.0700
     33 H33        -1.5807    1.9489   51.5126 H       1  ZINC000341804698    0.1100
     34 H34        -4.1938    3.9287   51.6552 H       1  ZINC000341804698    0.1400
     35 H35        -5.2258    3.0659   53.7132 H       1  ZINC000341804698    0.1400
     36 H36        -3.8382    2.5908   55.6867 H       1  ZINC000341804698    0.1400
     37 H37        -0.3512    3.8365   53.5560 H       1  ZINC000341804698    0.1500
     38 H38        -1.1042    3.8369   48.2169 H       1  ZINC000341804698    0.0800
     39 H39        -0.3855    5.1895   49.1287 H       1  ZINC000341804698    0.1100
     40 H40         1.5448    3.8103   49.7361 H       1  ZINC000341804698    0.1000
     41 H41         1.3329    3.7562   47.9690 H       1  ZINC000341804698    0.0900
@<TRIPOS>BOND
     1     1     2    1
     2     1    25    1
     3     1    26    1
     4     1    27    1
     5     2     3    1
     6     3     4    1
     7     3    28    1
     8     3    29    1
     9     4    24    1
    10     4     5    1
    11     4     7    1
    12     5     6    3
    13     7     8    1
    14     7    30    1
    15     7    31    1
    16     8     9    1
    17     8    32    1
    18     8    33    1
    19     9    10   am
    20     9    23    1
    21    10    11    2
    22    10    12    1
    23    12    22   ar
    24    12    13   ar
    25    13    14   ar
    26    13    34    1
    27    14    15   ar
    28    14    35    1
    29    15    16   ar
    30    15    36    1
    31    16    17    1
    32    16    22   ar
    33    17    18    1
    34    18    19    1
    35    18    20    1
    36    18    21    1
    37    22    37    1
    38    23    24    1
    39    23    38    1
    40    23    39    1
    41    24    40    1
    42    24    41    1
@<TRIPOS>SUBSTRUCTURE
     1 ZINC000341804698        1 TEMP              0 ****  ****    0 ROOT


##########                                Name:    ZINC000469391664
##########                DOCK_Rotatable_Bonds:                   6
##########                         Heavy_Atoms:                  29
##########                    Molecular_Weight:             408.524
##########                DOCK_Rotatable_Bonds:                   6
##########                       Formal_Charge:         -0.00999999
##########                     HBond_Acceptors:                   7
##########                        HBond_Donors:                   0
##########                         Heavy_Atoms:                  29
##########                          Grid_Score:          -24.087149
##########                     Grid_vdw_energy:          -22.859974
##########                      Grid_es_energy:           -1.227175
##########           Internal_energy_repulsive:           55.684933

@<TRIPOS>MOLECULE
ZINC000469391664
 53 56 1 0 0
SMALL
USER_CHARGES


@<TRIPOS>ATOM
      1 C1        -16.3681   -3.7817   58.5075 C.3     1  ZINC000469391664   -0.1500
      2 C2        -15.6036   -2.8812   57.5350 C.3     1  ZINC000469391664   -0.1000
      3 H3        -16.2854   -2.1449   57.1096 H       1  ZINC000469391664    0.0800
      4 C4        -15.0081   -3.7334   56.4119 C.3     1  ZINC000469391664   -0.1300
      5 C5        -14.2729   -2.8246   55.4218 C.3     1  ZINC000469391664    0.1100
      6 N6        -13.2866   -2.0226   56.1586 N.am    1  ZINC000469391664   -0.6100
      7 C7        -11.9928   -2.0091   55.7813 C.2     1  ZINC000469391664    0.5600
      8 O8        -11.6320   -2.6647   54.8229 O.2     1  ZINC000469391664   -0.5000
      9 C9        -11.0145   -1.1989   56.5310 C.ar    1  ZINC000469391664   -0.1100
     10 C10       -10.6905   -1.5301   57.8485 C.ar    1  ZINC000469391664   -0.0900
     11 C11        -9.7751   -0.7693   58.5435 C.ar    1  ZINC000469391664   -0.1000
     12 C12        -9.1738    0.3244   57.9421 C.ar    1  ZINC000469391664   -0.0900
     13 C13        -9.4843    0.6646   56.6407 C.ar    1  ZINC000469391664   -0.1000
     14 C14       -10.3993   -0.0938   55.9229 C.ar    1  ZINC000469391664    0.1500
     15 N15       -10.7138    0.2473   54.6107 N.am    1  ZINC000469391664   -0.5800
     16 C16       -10.0291   -0.4147   53.4975 C.3     1  ZINC000469391664    0.0900
     17 C17       -11.6484    1.1866   54.3642 C.2     1  ZINC000469391664    0.6100
     18 O18       -11.9235    1.4848   53.2167 O.2     1  ZINC000469391664   -0.5200
     19 C19       -12.3332    1.8487   55.4776 C.2     1  ZINC000469391664   -0.2600
     20 C20       -13.2764    2.8307   55.3570 C.2     1  ZINC000469391664   -0.0500
     21 C21       -13.7558    3.2752   56.5662 C.2     1  ZINC000469391664   -0.1500
     22 C22       -13.2253    2.6798   57.6409 C.2     1  ZINC000469391664   -0.2600
     23 S23       -12.0789    1.5022   57.1825 S.3     1  ZINC000469391664    0.2300
     24 C24       -13.7377   -1.2353   57.3141 C.3     1  ZINC000469391664    0.1000
     25 C25       -14.4787   -2.1622   58.2830 C.3     1  ZINC000469391664    0.1300
     26 H26       -13.7826   -2.8970   58.6876 H       1  ZINC000469391664    0.1000
     27 N27       -15.0465   -1.3718   59.3781 N.pl3   1  ZINC000469391664   -0.4500
     28 C28       -14.6568   -1.4037   60.6898 C.2     1  ZINC000469391664   -0.0500
     29 C29       -15.4366   -0.5260   61.3494 C.2     1  ZINC000469391664   -0.0300
     30 N30       -16.2795    0.0268   60.4646 N.2     1  ZINC000469391664   -0.4900
     31 C31       -16.0482   -0.4713   59.2807 C.2     1  ZINC000469391664    0.1800
     32 H32       -16.7928   -3.1748   59.3071 H       1  ZINC000469391664    0.0600
     33 H33       -17.1697   -4.2936   57.9749 H       1  ZINC000469391664    0.0600
     34 H34       -15.6865   -4.5181   58.9330 H       1  ZINC000469391664    0.0600
     35 H35       -14.3072   -4.4535   56.8342 H       1  ZINC000469391664    0.0700
     36 H36       -15.8076   -4.2636   55.8945 H       1  ZINC000469391664    0.0900
     37 H37       -13.7639   -3.4340   54.6751 H       1  ZINC000469391664    0.1000
     38 H38       -14.9881   -2.1641   54.9316 H       1  ZINC000469391664    0.0800
     39 H39       -11.1569   -2.3812   58.3222 H       1  ZINC000469391664    0.1400
     40 H40        -9.5256   -1.0268   59.5621 H       1  ZINC000469391664    0.1400
     41 H41        -8.4581    0.9146   58.4950 H       1  ZINC000469391664    0.1400
     42 H42        -9.0115    1.5188   56.1791 H       1  ZINC000469391664    0.1400
     43 H43       -10.6309   -1.2536   53.1480 H       1  ZINC000469391664    0.0600
     44 H44        -9.8886    0.2960   52.6831 H       1  ZINC000469391664    0.0900
     45 H45        -9.0582   -0.7789   53.8333 H       1  ZINC000469391664    0.0700
     46 H46       -13.6114    3.2188   54.4064 H       1  ZINC000469391664    0.1500
     47 H47       -14.5055    4.0488   56.6433 H       1  ZINC000469391664    0.1400
     48 H48       -13.4905    2.9110   58.6620 H       1  ZINC000469391664    0.1600
     49 H49       -12.8756   -0.7960   57.8160 H       1  ZINC000469391664    0.1000
     50 H50       -14.4093   -0.4452   56.9783 H       1  ZINC000469391664    0.0800
     51 H51       -13.8746   -2.0156   61.1143 H       1  ZINC000469391664    0.1700
     52 H52       -15.3912   -0.3059   62.4058 H       1  ZINC000469391664    0.1700
     53 H53       -16.5752   -0.2114   58.3745 H       1  ZINC000469391664    0.2000
@<TRIPOS>BOND
     1     1     2    1
     2     1    32    1
     3     1    33    1
     4     1    34    1
     5     2     3    1
     6     2    25    1
     7     2     4    1
     8     4     5    1
     9     4    35    1
    10     4    36    1
    11     5     6    1
    12     5    37    1
    13     5    38    1
    14     6     7   am
    15     6    24    1
    16     7     8    2
    17     7     9    1
    18     9    14   ar
    19     9    10   ar
    20    10    11   ar
    21    10    39    1
    22    11    12   ar
    23    11    40    1
    24    12    13   ar
    25    12    41    1
    26    13    14   ar
    27    13    42    1
    28    14    15    1
    29    15    16    1
    30    15    17   am
    31    16    43    1
    32    16    44    1
    33    16    45    1
    34    17    18    2
    35    17    19    1
    36    19    23    1
    37    19    20    2
    38    20    21    1
    39    20    46    1
    40    21    22    2
    41    21    47    1
    42    22    23    1
    43    22    48    1
    44    24    25    1
    45    24    49    1
    46    24    50    1
    47    25    26    1
    48    25    27    1
    49    27    31    1
    50    27    28    1
    51    28    29    2
    52    28    51    1
    53    29    30    1
    54    29    52    1
    55    30    31    2
    56    31    53    1
@<TRIPOS>SUBSTRUCTURE
     1 ZINC000469391664        1 TEMP              0 ****  ****    0 ROOT


##########                                Name:    ZINC001074839487
##########                DOCK_Rotatable_Bonds:                   7
##########                         Heavy_Atoms:                  25
##########                    Molecular_Weight:             344.454
##########                DOCK_Rotatable_Bonds:                   7
##########                       Formal_Charge:          -0.0500005
##########                     HBond_Acceptors:                   5
##########                        HBond_Donors:                   1
##########                         Heavy_Atoms:                  25
##########                          Grid_Score:          -24.069916
##########                     Grid_vdw_energy:          -24.243649
##########                      Grid_es_energy:            0.173733
##########           Internal_energy_repulsive:           88.012352

@<TRIPOS>MOLECULE
ZINC001074839487
 53 55 1 0 0
SMALL
USER_CHARGES


@<TRIPOS>ATOM
      1 C1        -12.4624    1.3482   40.3331 C.3     1  ZINC001074839487   -0.1500
      2 C2        -13.2177    2.2861   41.2769 C.3     1  ZINC001074839487   -0.1300
      3 C3        -13.7602    1.4871   42.4636 C.3     1  ZINC001074839487   -0.1100
      4 C4        -14.5166    2.4248   43.4067 C.3     1  ZINC001074839487   -0.1400
      5 C5        -15.0855    1.6310   44.5545 C.2     1  ZINC001074839487    0.5100
      6 O6        -16.1963    1.1517   44.4687 O.2     1  ZINC001074839487   -0.5400
      7 N7        -14.3599    1.4538   45.6763 N.am    1  ZINC001074839487   -0.7300
      8 C8        -14.9122    0.6807   46.7914 C.3     1  ZINC001074839487    0.1400
      9 H9        -15.4941   -0.1544   46.4013 H       1  ZINC001074839487    0.0900
     10 C10       -13.7688    0.1454   47.6566 C.3     1  ZINC001074839487   -0.1500
     11 C11       -12.9331    1.3200   48.1749 C.3     1  ZINC001074839487    0.0700
     12 N12       -13.8218    2.2640   48.8661 N.am    1  ZINC001074839487   -0.6000
     13 C13       -13.5582    2.6569   50.1281 C.2     1  ZINC001074839487    0.5600
     14 O14       -14.3011    3.4385   50.6890 O.2     1  ZINC001074839487   -0.5200
     15 C15       -12.3654    2.1373   50.8303 C.ar    1  ZINC001074839487   -0.1300
     16 C16       -11.1481    2.8135   50.7381 C.ar    1  ZINC001074839487   -0.1000
     17 C17       -10.0375    2.3239   51.3956 C.ar    1  ZINC001074839487   -0.1000
     18 C18       -10.1295    1.1668   52.1437 C.ar    1  ZINC001074839487   -0.1100
     19 C19        -9.1184    0.3956   52.9604 C.3     1  ZINC001074839487    0.0900
     20 O20        -9.6803   -0.9158   53.1502 O.3     1  ZINC001074839487   -0.3600
     21 C21       -11.1056   -0.7182   53.1172 C.3     1  ZINC001074839487    0.0900
     22 C22       -11.3373    0.4896   52.2392 C.ar    1  ZINC001074839487   -0.1400
     23 C23       -12.4536    0.9706   51.5930 C.ar    1  ZINC001074839487   -0.0400
     24 C24       -15.0036    2.7712   48.1556 C.3     1  ZINC001074839487    0.1500
     25 H25       -14.6874    3.3908   47.3164 H       1  ZINC001074839487    0.0700
     26 C26       -15.8618    3.5997   49.1138 C.3     1  ZINC001074839487   -0.1400
     27 C27       -15.8161    1.5805   47.6373 C.3     1  ZINC001074839487   -0.1400
     28 H28       -11.6338    0.8845   40.8681 H       1  ZINC001074839487    0.0500
     29 H29       -12.0760    1.9174   39.4876 H       1  ZINC001074839487    0.0500
     30 H30       -13.1396    0.5745   39.9710 H       1  ZINC001074839487    0.0500
     31 H31       -12.5407    3.0598   41.6389 H       1  ZINC001074839487    0.0600
     32 H32       -14.0465    2.7498   40.7418 H       1  ZINC001074839487    0.0600
     33 H33       -14.4366    0.7128   42.1015 H       1  ZINC001074839487    0.0700
     34 H34       -12.9314    1.0241   42.9992 H       1  ZINC001074839487    0.0700
     35 H35       -13.8332    3.1816   43.7917 H       1  ZINC001074839487    0.0900
     36 H36       -15.3274    2.9100   42.8634 H       1  ZINC001074839487    0.0900
     37 H37       -13.4720    1.8382   45.7454 H       1  ZINC001074839487    0.4000
     38 H38       -14.1798   -0.4090   48.5001 H       1  ZINC001074839487    0.0800
     39 H39       -13.1388   -0.5138   47.0594 H       1  ZINC001074839487    0.0800
     40 H40       -12.1784    0.9526   48.8703 H       1  ZINC001074839487    0.1200
     41 H41       -12.4480    1.8212   47.3373 H       1  ZINC001074839487    0.0700
     42 H42       -11.0752    3.7188   50.1535 H       1  ZINC001074839487    0.1500
     43 H43        -9.0952    2.8468   51.3251 H       1  ZINC001074839487    0.1400
     44 H44        -8.1744    0.3251   52.4201 H       1  ZINC001074839487    0.1000
     45 H45        -8.9650    0.8814   53.9241 H       1  ZINC001074839487    0.0800
     46 H46       -11.5962   -1.5927   52.6900 H       1  ZINC001074839487    0.1000
     47 H47       -11.4819   -0.5294   54.1226 H       1  ZINC001074839487    0.0800
     48 H48       -13.3938    0.4452   51.6722 H       1  ZINC001074839487    0.1400
     49 H49       -15.3209    4.5023   49.3980 H       1  ZINC001074839487    0.0800
     50 H50       -16.7942    3.8748   48.6208 H       1  ZINC001074839487    0.0500
     51 H51       -16.0817    3.0120   50.0051 H       1  ZINC001074839487    0.0700
     52 H52       -16.6431    1.9424   47.0267 H       1  ZINC001074839487    0.0900
     53 H53       -16.2077    1.0124   48.4812 H       1  ZINC001074839487    0.0900
@<TRIPOS>BOND
     1     1     2    1
     2     1    28    1
     3     1    29    1
     4     1    30    1
     5     2     3    1
     6     2    31    1
     7     2    32    1
     8     3     4    1
     9     3    33    1
    10     3    34    1
    11     4     5    1
    12     4    35    1
    13     4    36    1
    14     5     6    2
    15     5     7   am
    16     7     8    1
    17     7    37    1
    18     8     9    1
    19     8    27    1
    20     8    10    1
    21    10    11    1
    22    10    38    1
    23    10    39    1
    24    11    12    1
    25    11    40    1
    26    11    41    1
    27    12    13   am
    28    12    24    1
    29    13    14    2
    30    13    15    1
    31    15    23   ar
    32    15    16   ar
    33    16    17   ar
    34    16    42    1
    35    17    18   ar
    36    17    43    1
    37    18    22   ar
    38    18    19    1
    39    19    20    1
    40    19    44    1
    41    19    45    1
    42    20    21    1
    43    21    22    1
    44    21    46    1
    45    21    47    1
    46    22    23   ar
    47    23    48    1
    48    24    25    1
    49    24    26    1
    50    24    27    1
    51    26    49    1
    52    26    50    1
    53    26    51    1
    54    27    52    1
    55    27    53    1
@<TRIPOS>SUBSTRUCTURE
     1 ZINC001074839487        1 TEMP              0 ****  ****    0 ROOT


##########                                Name:    ZINC000179743483
##########                DOCK_Rotatable_Bonds:                   5
##########                         Heavy_Atoms:                  23
##########                    Molecular_Weight:             393.347
##########                DOCK_Rotatable_Bonds:                   5
##########                       Formal_Charge:          -0.0199999
##########                     HBond_Acceptors:                   4
##########                        HBond_Donors:                   0
##########                         Heavy_Atoms:                  23
##########                          Grid_Score:          -24.005817
##########                     Grid_vdw_energy:          -22.947506
##########                      Grid_es_energy:           -1.058312
##########           Internal_energy_repulsive:           23.949251

@<TRIPOS>MOLECULE
ZINC000179743483
 44 46 1 0 0
SMALL
USER_CHARGES


@<TRIPOS>ATOM
      1 C1        -10.0658    2.7611   57.9132 C.3     1  ZINC000179743483   -0.1400
      2 C2         -9.4948    1.5317   57.2037 C.3     1  ZINC000179743483   -0.1000
      3 H3        -10.3084    0.8610   56.9274 H       1  ZINC000179743483    0.1000
      4 C4         -8.7465    1.9717   55.9437 C.3     1  ZINC000179743483   -0.0700
      5 C5         -9.5851    1.6669   54.7292 C.ar    1  ZINC000179743483   -0.0600
      6 C6         -9.0059    1.0814   53.6188 C.ar    1  ZINC000179743483   -0.1100
      7 C7         -9.7748    0.8013   52.5049 C.ar    1  ZINC000179743483   -0.0900
      8 C8        -11.1238    1.1069   52.5012 C.ar    1  ZINC000179743483   -0.0900
      9 Br9       -12.1763    0.7233   50.9778 Br      1  ZINC000179743483   -0.0500
     10 C10       -11.7028    1.6927   53.6125 C.ar    1  ZINC000179743483   -0.0900
     11 C11       -10.9343    1.9677   54.7279 C.ar    1  ZINC000179743483   -0.1100
     12 C12        -8.5445    0.8146   58.1276 C.2     1  ZINC000179743483    0.5200
     13 O13        -7.3499    1.0021   58.0335 O.2     1  ZINC000179743483   -0.5300
     14 N14        -9.0219   -0.0350   59.0586 N.am    1  ZINC000179743483   -0.6100
     15 C15        -8.1078   -0.7413   59.9664 C.3     1  ZINC000179743483    0.1000
     16 C16        -8.5501   -0.4838   61.4103 C.3     1  ZINC000179743483   -0.1400
     17 C17       -10.0206   -0.8779   61.5671 C.3     1  ZINC000179743483   -0.1100
     18 C18       -10.8823   -0.0203   60.6376 C.3     1  ZINC000179743483   -0.0200
     19 H19       -10.7403    1.0332   60.8790 H       1  ZINC000179743483    0.0900
     20 C20       -12.3331   -0.3861   60.8168 C.2     1  ZINC000179743483    0.0500
     21 N21       -13.1459    0.1950   61.6332 N.2     1  ZINC000179743483   -0.4700
     22 C22       -14.3860   -0.2499   61.6650 C.2     1  ZINC000179743483    0.0400
     23 C23       -14.6329   -1.2627   60.8288 C.2     1  ZINC000179743483   -0.2600
     24 S24       -13.1423   -1.6266   59.9625 S.3     1  ZINC000179743483    0.1300
     25 C25       -10.4667   -0.2679   59.1889 C.3     1  ZINC000179743483    0.1200
     26 H26        -9.2481    3.3943   58.2575 H       1  ZINC000179743483    0.0700
     27 H27       -10.6927    3.3220   57.2201 H       1  ZINC000179743483    0.0700
     28 H28       -10.6633    2.4428   58.7674 H       1  ZINC000179743483    0.0600
     29 H29        -8.5527    3.0432   55.9918 H       1  ZINC000179743483    0.0900
     30 H30        -7.8007    1.4340   55.8765 H       1  ZINC000179743483    0.0800
     31 H31        -7.9526    0.8432   53.6217 H       1  ZINC000179743483    0.1300
     32 H32        -9.3221    0.3442   51.6373 H       1  ZINC000179743483    0.1300
     33 H33       -12.7561    1.9315   53.6100 H       1  ZINC000179743483    0.1300
     34 H34       -11.3863    2.4251   55.5957 H       1  ZINC000179743483    0.1300
     35 H35        -8.1412   -1.8109   59.7592 H       1  ZINC000179743483    0.0700
     36 H36        -7.0926   -0.3709   59.8237 H       1  ZINC000179743483    0.0900
     37 H37        -7.9396   -1.0788   62.0895 H       1  ZINC000179743483    0.0800
     38 H38        -8.4301    0.5740   61.6444 H       1  ZINC000179743483    0.0700
     39 H39       -10.1441   -1.9297   61.3088 H       1  ZINC000179743483    0.0800
     40 H40       -10.3311   -0.7188   62.5997 H       1  ZINC000179743483    0.0700
     41 H41       -15.1406    0.1694   62.3139 H       1  ZINC000179743483    0.1800
     42 H42       -15.5799   -1.7666   60.7035 H       1  ZINC000179743483    0.1800
     43 H43       -11.0086    0.4125   58.5319 H       1  ZINC000179743483    0.0900
     44 H44       -10.6908   -1.2989   58.9156 H       1  ZINC000179743483    0.0800
@<TRIPOS>BOND
     1     1     2    1
     2     1    26    1
     3     1    27    1
     4     1    28    1
     5     2     3    1
     6     2     4    1
     7     2    12    1
     8     4     5    1
     9     4    29    1
    10     4    30    1
    11     5    11   ar
    12     5     6   ar
    13     6     7   ar
    14     6    31    1
    15     7     8   ar
    16     7    32    1
    17     8     9    1
    18     8    10   ar
    19    10    11   ar
    20    10    33    1
    21    11    34    1
    22    12    13    2
    23    12    14   am
    24    14    25    1
    25    14    15    1
    26    15    16    1
    27    15    35    1
    28    15    36    1
    29    16    17    1
    30    16    37    1
    31    16    38    1
    32    17    18    1
    33    17    39    1
    34    17    40    1
    35    18    19    1
    36    18    20    1
    37    18    25    1
    38    20    24    1
    39    20    21    2
    40    21    22    1
    41    22    23    2
    42    22    41    1
    43    23    24    1
    44    23    42    1
    45    25    43    1
    46    25    44    1
@<TRIPOS>SUBSTRUCTURE
     1 ZINC000179743483        1 TEMP              0 ****  ****    0 ROOT


##########                                Name:    ZINC000915315870
##########                DOCK_Rotatable_Bonds:                   4
##########                         Heavy_Atoms:                  24
##########                    Molecular_Weight:             357.381
##########                DOCK_Rotatable_Bonds:                   4
##########                       Formal_Charge:           0.0300002
##########                     HBond_Acceptors:                   9
##########                        HBond_Donors:                   1
##########                         Heavy_Atoms:                  24
##########                          Grid_Score:          -23.971760
##########                     Grid_vdw_energy:          -23.733387
##########                      Grid_es_energy:           -0.238374
##########           Internal_energy_repulsive:           35.762585

@<TRIPOS>MOLECULE
ZINC000915315870
 41 43 1 0 0
SMALL
USER_CHARGES


@<TRIPOS>ATOM
      1 C1        -15.3780   -3.1268   59.5299 C.3     1  ZINC000915315870    0.0300
      2 O2        -14.4415   -2.9241   58.4698 O.3     1  ZINC000915315870   -0.3200
      3 C3        -13.1724   -2.5861   58.8233 C.ar    1  ZINC000915315870    0.0800
      4 C4        -12.8339   -2.4598   60.1639 C.ar    1  ZINC000915315870    0.0900
      5 F5        -13.7649   -2.6733   61.1194 F       1  ZINC000915315870   -0.1100
      6 C6        -11.5419   -2.1158   60.5203 C.ar    1  ZINC000915315870   -0.0500
      7 C7        -10.5886   -1.8972   59.5432 C.ar    1  ZINC000915315870   -0.6300
      8 S8         -8.9447   -1.4586   60.0012 S.o2    1  ZINC000915315870    2.7000
      9 O9         -9.0198   -0.9471   61.3248 O.2     1  ZINC000915315870   -0.9400
     10 O10        -8.1204   -2.5578   59.6383 O.2     1  ZINC000915315870   -0.9400
     11 N11        -8.4881   -0.1929   59.0359 N.am    1  ZINC000915315870   -1.1100
     12 C12        -9.2469    1.0599   59.0630 C.3     1  ZINC000915315870    0.2400
     13 H13       -10.2890    0.8534   59.3067 H       1  ZINC000915315870    0.0900
     14 C14        -8.6477    2.0053   60.1118 C.3     1  ZINC000915315870   -0.1400
     15 C15        -9.2769    3.3935   59.9750 C.3     1  ZINC000915315870   -0.1100
     16 C16        -8.7610    4.0731   58.7005 C.3     1  ZINC000915315870   -0.0400
     17 C17        -8.9368    3.1123   57.5496 C.2     1  ZINC000915315870    0.0900
     18 N18        -8.9134    3.3691   56.2742 N.2     1  ZINC000915315870   -0.2900
     19 N19        -9.1252    2.1666   55.5828 N.pl3   1  ZINC000915315870   -0.3800
     20 C20        -9.1743    2.0072   54.1273 C.3     1  ZINC000915315870    0.1000
     21 C21        -9.2753    1.1808   56.4958 C.2     1  ZINC000915315870    0.0800
     22 C22        -9.1631    1.7351   57.7162 C.2     1  ZINC000915315870   -0.2500
     23 C23       -10.9224   -2.0225   58.2074 C.ar    1  ZINC000915315870   -0.0500
     24 C24       -12.2112   -2.3719   57.8446 C.ar    1  ZINC000915315870    0.1000
     25 F25       -12.5366   -2.4942   56.5391 F       1  ZINC000915315870   -0.1100
     26 H26       -16.3492   -3.3907   59.1112 H       1  ZINC000915315870    0.1100
     27 H27       -15.0287   -3.9338   60.1740 H       1  ZINC000915315870    0.0600
     28 H28       -15.4707   -2.2107   60.1131 H       1  ZINC000915315870    0.0500
     29 H29       -11.2780   -2.0174   61.5630 H       1  ZINC000915315870    0.1700
     30 H30        -7.7181   -0.2810   58.4524 H       1  ZINC000915315870    0.4200
     31 H31        -8.8472    1.6135   61.1092 H       1  ZINC000915315870    0.0900
     32 H32        -7.5708    2.0788   59.9606 H       1  ZINC000915315870    0.0800
     33 H33       -10.3612    3.2963   59.9205 H       1  ZINC000915315870    0.0700
     34 H34        -9.0112    3.9990   60.8415 H       1  ZINC000915315870    0.0800
     35 H35        -9.3323    4.9819   58.5114 H       1  ZINC000915315870    0.0800
     36 H36        -7.7054    4.3189   58.8164 H       1  ZINC000915315870    0.0900
     37 H37        -8.1730    1.7985   53.7507 H       1  ZINC000915315870    0.0800
     38 H38        -9.8373    1.1797   53.8747 H       1  ZINC000915315870    0.0900
     39 H39        -9.5492    2.9247   53.6738 H       1  ZINC000915315870    0.0900
     40 H40        -9.4534    0.1369   56.2838 H       1  ZINC000915315870    0.1700
     41 H41       -10.1754   -1.8515   57.4464 H       1  ZINC000915315870    0.1700
@<TRIPOS>BOND
     1     1     2    1
     2     1    26    1
     3     1    27    1
     4     1    28    1
     5     2     3    1
     6     3    24   ar
     7     3     4   ar
     8     4     5    1
     9     4     6   ar
    10     6     7   ar
    11     6    29    1
    12     7     8    1
    13     7    23   ar
    14     8     9    2
    15     8    10    2
    16     8    11   am
    17    11    12    1
    18    11    30    1
    19    12    13    1
    20    12    22    1
    21    12    14    1
    22    14    15    1
    23    14    31    1
    24    14    32    1
    25    15    16    1
    26    15    33    1
    27    15    34    1
    28    16    17    1
    29    16    35    1
    30    16    36    1
    31    17    22    1
    32    17    18    2
    33    18    19    1
    34    19    20    1
    35    19    21    1
    36    20    37    1
    37    20    38    1
    38    20    39    1
    39    21    22    2
    40    21    40    1
    41    23    24   ar
    42    23    41    1
    43    24    25    1
@<TRIPOS>SUBSTRUCTURE
     1 ZINC000915315870        1 TEMP              0 ****  ****    0 ROOT


##########                                Name:    ZINC001060620810
##########                DOCK_Rotatable_Bonds:                   5
##########                         Heavy_Atoms:                  24
##########                    Molecular_Weight:             332.421
##########                DOCK_Rotatable_Bonds:                   5
##########                       Formal_Charge:           0.0299998
##########                     HBond_Acceptors:                   6
##########                        HBond_Donors:                   2
##########                         Heavy_Atoms:                  24
##########                          Grid_Score:          -23.970404
##########                     Grid_vdw_energy:          -24.231012
##########                      Grid_es_energy:            0.260609
##########           Internal_energy_repulsive:           11.111101

@<TRIPOS>MOLECULE
ZINC001060620810
 49 52 1 0 0
SMALL
USER_CHARGES


@<TRIPOS>ATOM
      1 O1        -13.4106   -2.5549   60.5653 O.2     1  ZINC001060620810   -0.5400
      2 C2        -13.1982   -2.2672   59.4063 C.2     1  ZINC001060620810    0.5500
      3 N3        -12.0437   -1.6626   59.0628 N.am    1  ZINC001060620810   -0.7200
      4 C4        -11.0444   -1.3548   60.0890 C.3     1  ZINC001060620810    0.1400
      5 C5         -9.7069   -1.0349   59.4186 C.3     1  ZINC001060620810   -0.1300
      6 C6         -8.6633   -0.7133   60.4902 C.3     1  ZINC001060620810   -0.1300
      7 C7         -9.1264    0.4949   61.3068 C.3     1  ZINC001060620810    0.1600
      8 N8         -9.2882    1.6501   60.4206 N.pl3   1  ZINC001060620810   -0.6900
      9 C9         -9.2709    2.9327   60.9441 C.ar    1  ZINC001060620810    0.5600
     10 N10        -9.2829    3.0939   62.2588 N.ar    1  ZINC001060620810   -0.5400
     11 C11        -9.2622    4.3043   62.7924 C.ar    1  ZINC001060620810    0.1700
     12 C12        -9.2384    5.4117   61.9562 C.ar    1  ZINC001060620810   -0.0700
     13 F13        -9.2216    6.6625   62.4668 F       1  ZINC001060620810   -0.1300
     14 C14        -9.2317    5.2056   60.5839 C.ar    1  ZINC001060620810    0.1800
     15 N15        -9.2483    3.9675   60.1178 N.ar    1  ZINC001060620810   -0.5500
     16 C16       -10.4640    0.1751   61.9772 C.3     1  ZINC001060620810   -0.1200
     17 C17       -11.5075   -0.1465   60.9054 C.3     1  ZINC001060620810   -0.1300
     18 C18       -14.2253   -2.5855   58.3505 C.3     1  ZINC001060620810   -0.1500
     19 C19       -15.5424   -1.8275   58.4532 C.3     1  ZINC001060620810   -0.1500
     20 C20       -15.4819   -3.2906   58.8366 C.3     1  ZINC001060620810   -0.1100
     21 H21       -15.5529   -3.5059   59.9026 H       1  ZINC001060620810    0.1100
     22 C22       -16.2116   -4.2852   57.9392 C.3     1  ZINC001060620810   -0.0900
     23 C23       -15.2878   -4.7784   56.8254 C.3     1  ZINC001060620810   -0.1200
     24 C24       -14.7110   -3.5609   56.0941 C.3     1  ZINC001060620810   -0.1200
     25 C25       -13.6475   -2.9168   56.9835 C.3     1  ZINC001060620810   -0.0800
     26 H26       -11.8744   -1.4314   58.1361 H       1  ZINC001060620810    0.4000
     27 H27       -10.9240   -2.2143   60.7483 H       1  ZINC001060620810    0.0900
     28 H28        -9.3769   -1.8956   58.8368 H       1  ZINC001060620810    0.0700
     29 H29        -9.8273   -0.1753   58.7592 H       1  ZINC001060620810    0.0600
     30 H30        -7.7103   -0.4854   60.0126 H       1  ZINC001060620810    0.0700
     31 H31        -8.5429   -1.5729   61.1496 H       1  ZINC001060620810    0.0800
     32 H32        -8.3829    0.7239   62.0702 H       1  ZINC001060620810    0.1000
     33 H33        -9.4073    1.5171   59.4672 H       1  ZINC001060620810    0.4100
     34 H34        -9.2684    4.4292   63.8651 H       1  ZINC001060620810    0.1800
     35 H35        -9.2137    6.0452   59.9049 H       1  ZINC001060620810    0.1800
     36 H36       -10.7938    1.0357   62.5589 H       1  ZINC001060620810    0.0800
     37 H37       -10.3435   -0.6846   62.6365 H       1  ZINC001060620810    0.0900
     38 H38       -11.6279    0.7130   60.2461 H       1  ZINC001060620810    0.0700
     39 H39       -12.4604   -0.3745   61.3831 H       1  ZINC001060620810    0.0800
     40 H40       -15.6466   -1.1057   59.2632 H       1  ZINC001060620810    0.1000
     41 H41       -16.0485   -1.5685   57.5233 H       1  ZINC001060620810    0.1100
     42 H42       -17.0721   -3.7821   57.4984 H       1  ZINC001060620810    0.0700
     43 H43       -16.5533   -5.1362   58.5285 H       1  ZINC001060620810    0.0700
     44 H44       -15.8542   -5.3918   56.1248 H       1  ZINC001060620810    0.0700
     45 H45       -14.4761   -5.3650   57.2560 H       1  ZINC001060620810    0.0700
     46 H46       -15.5065   -2.8424   55.8959 H       1  ZINC001060620810    0.0700
     47 H47       -14.2589   -3.8786   55.1545 H       1  ZINC001060620810    0.0700
     48 H48       -13.2910   -2.0008   56.5121 H       1  ZINC001060620810    0.0700
     49 H49       -12.8131   -3.6077   57.1034 H       1  ZINC001060620810    0.0700
@<TRIPOS>BOND
     1     1     2    2
     2     2     3   am
     3     2    18    1
     4     3     4    1
     5     3    26    1
     6     4    17    1
     7     4     5    1
     8     4    27    1
     9     5     6    1
    10     5    28    1
    11     5    29    1
    12     6     7    1
    13     6    30    1
    14     6    31    1
    15     7     8    1
    16     7    16    1
    17     7    32    1
    18     8     9    1
    19     8    33    1
    20     9    15   ar
    21     9    10   ar
    22    10    11   ar
    23    11    12   ar
    24    11    34    1
    25    12    13    1
    26    12    14   ar
    27    14    15   ar
    28    14    35    1
    29    16    17    1
    30    16    36    1
    31    16    37    1
    32    17    38    1
    33    17    39    1
    34    18    20    1
    35    18    25    1
    36    18    19    1
    37    19    20    1
    38    19    40    1
    39    19    41    1
    40    20    21    1
    41    20    22    1
    42    22    23    1
    43    22    42    1
    44    22    43    1
    45    23    24    1
    46    23    44    1
    47    23    45    1
    48    24    25    1
    49    24    46    1
    50    24    47    1
    51    25    48    1
    52    25    49    1
@<TRIPOS>SUBSTRUCTURE
     1 ZINC001060620810        1 TEMP              0 ****  ****    0 ROOT


##########                                Name:    ZINC000883773972
##########                DOCK_Rotatable_Bonds:                   4
##########                         Heavy_Atoms:                  23
##########                    Molecular_Weight:             343.447
##########                DOCK_Rotatable_Bonds:                   4
##########                       Formal_Charge:                0.01
##########                     HBond_Acceptors:                   8
##########                        HBond_Donors:                   1
##########                         Heavy_Atoms:                  23
##########                          Grid_Score:          -23.945259
##########                     Grid_vdw_energy:          -24.130997
##########                      Grid_es_energy:            0.185737
##########           Internal_energy_repulsive:           16.410593

@<TRIPOS>MOLECULE
ZINC000883773972
 48 50 1 0 0
SMALL
USER_CHARGES


@<TRIPOS>ATOM
      1 C1         -7.8028    3.7341   64.2881 C.3     1  ZINC000883773972   -0.1700
      2 C2         -7.5895    2.2652   64.0273 C.2     1  ZINC000883773972    0.5300
      3 O3         -6.6689    1.6822   64.5597 O.2     1  ZINC000883773972   -0.5400
      4 N4         -8.4219    1.5994   63.2025 N.am    1  ZINC000883773972   -0.6200
      5 C5         -9.5761    2.1577   62.4790 C.3     1  ZINC000883773972    0.1100
      6 C6         -9.6962    1.3579   61.1711 C.3     1  ZINC000883773972   -0.1100
      7 H7         -9.3161    1.9177   60.3167 H       1  ZINC000883773972    0.1000
      8 C8        -11.1590    0.9282   60.9691 C.3     1  ZINC000883773972    0.1300
      9 N9        -11.1289   -0.5073   60.6447 N.am    1  ZINC000883773972   -0.6400
     10 C10       -11.9948   -1.1730   59.8549 C.2     1  ZINC000883773972    0.7300
     11 O11       -11.8533   -2.3661   59.6680 O.2     1  ZINC000883773972   -0.5800
     12 N12       -13.0173   -0.5161   59.2723 N.am    1  ZINC000883773972   -0.7400
     13 C13       -13.9574   -1.2394   58.4124 C.3     1  ZINC000883773972    0.1800
     14 H14       -14.7364   -0.5564   58.0733 H       1  ZINC000883773972    0.1100
     15 C15       -13.2118   -1.7973   57.2036 C.3     1  ZINC000883773972   -0.1500
     16 C16       -14.1939   -2.3367   56.1678 C.3     1  ZINC000883773972   -0.1000
     17 C17       -14.8609   -3.6102   56.6928 C.3     1  ZINC000883773972   -0.5600
     18 H18       -14.0960   -4.3408   56.9555 H       1  ZINC000883773972    0.1400
     19 C19       -15.7753   -4.1918   55.6128 C.3     1  ZINC000883773972   -0.1400
     20 S20       -15.8411   -3.1998   58.1663 S.o2    1  ZINC000883773972    2.4200
     21 O21       -16.8294   -2.2453   57.8037 O.2     1  ZINC000883773972   -0.9200
     22 O22       -16.2404   -4.4085   58.7979 O.2     1  ZINC000883773972   -0.9300
     23 C23       -14.5943   -2.3829   59.2051 C.3     1  ZINC000883773972   -0.6300
     24 C24        -9.9684   -1.0740   61.3515 C.3     1  ZINC000883773972    0.1100
     25 C25        -8.8945    0.0554   61.4133 C.3     1  ZINC000883773972   -0.1100
     26 H26        -8.1006   -0.0991   60.6825 H       1  ZINC000883773972    0.1000
     27 C27        -8.3507    0.1735   62.8439 C.3     1  ZINC000883773972    0.1100
     28 H28        -7.0375    4.0961   64.9746 H       1  ZINC000883773972    0.0900
     29 H29        -7.7374    4.2832   63.3488 H       1  ZINC000883773972    0.0900
     30 H30        -8.7879    3.8855   64.7296 H       1  ZINC000883773972    0.0900
     31 H31       -10.4823    2.0411   63.0735 H       1  ZINC000883773972    0.0800
     32 H32        -9.4056    3.2115   62.2588 H       1  ZINC000883773972    0.0900
     33 H33       -11.7272    1.0932   61.8846 H       1  ZINC000883773972    0.0700
     34 H34       -11.6033    1.4885   60.1465 H       1  ZINC000883773972    0.0900
     35 H35       -13.1309    0.4354   59.4224 H       1  ZINC000883773972    0.4000
     36 H36       -12.6139   -1.0051   56.7533 H       1  ZINC000883773972    0.0900
     37 H37       -12.5534   -2.6031   57.5282 H       1  ZINC000883773972    0.0800
     38 H38       -14.9571   -1.5850   55.9670 H       1  ZINC000883773972    0.0900
     39 H39       -13.6589   -2.5626   55.2453 H       1  ZINC000883773972    0.0900
     40 H40       -15.1859   -4.4298   54.7274 H       1  ZINC000883773972    0.0800
     41 H41       -16.2497   -5.0985   55.9881 H       1  ZINC000883773972    0.0700
     42 H42       -16.5417   -3.4613   55.3536 H       1  ZINC000883773972    0.0800
     43 H43       -13.8276   -3.1037   59.4895 H       1  ZINC000883773972    0.1400
     44 H44       -15.0705   -1.9828   60.1001 H       1  ZINC000883773972    0.1400
     45 H45       -10.2560   -1.3809   62.3570 H       1  ZINC000883773972    0.0800
     46 H46        -9.5730   -1.9260   60.7984 H       1  ZINC000883773972    0.0800
     47 H47        -7.3243   -0.1912   62.8852 H       1  ZINC000883773972    0.0900
     48 H48        -8.9780   -0.3947   63.5307 H       1  ZINC000883773972    0.0700
@<TRIPOS>BOND
     1     1     2    1
     2     1    28    1
     3     1    29    1
     4     1    30    1
     5     2     3    2
     6     2     4   am
     7     4    27    1
     8     4     5    1
     9     5     6    1
    10     5    31    1
    11     5    32    1
    12     6     7    1
    13     6    25    1
    14     6     8    1
    15     8     9    1
    16     8    33    1
    17     8    34    1
    18     9    10   am
    19     9    24    1
    20    10    11    2
    21    10    12   am
    22    12    13    1
    23    12    35    1
    24    13    14    1
    25    13    23    1
    26    13    15    1
    27    15    16    1
    28    15    36    1
    29    15    37    1
    30    16    17    1
    31    16    38    1
    32    16    39    1
    33    17    18    1
    34    17    19    1
    35    17    20    1
    36    19    40    1
    37    19    41    1
    38    19    42    1
    39    20    21    2
    40    20    22    2
    41    20    23    1
    42    23    43    1
    43    23    44    1
    44    24    25    1
    45    24    45    1
    46    24    46    1
    47    25    26    1
    48    25    27    1
    49    27    47    1
    50    27    48    1
@<TRIPOS>SUBSTRUCTURE
     1 ZINC000883773972        1 TEMP              0 ****  ****    0 ROOT


##########                                Name:    ZINC000274267583
##########                DOCK_Rotatable_Bonds:                   5
##########                         Heavy_Atoms:                  24
##########                    Molecular_Weight:             349.407
##########                DOCK_Rotatable_Bonds:                   5
##########                       Formal_Charge:           0.0300001
##########                     HBond_Acceptors:                   7
##########                        HBond_Donors:                   1
##########                         Heavy_Atoms:                  24
##########                          Grid_Score:          -23.933443
##########                     Grid_vdw_energy:          -22.373472
##########                      Grid_es_energy:           -1.559970
##########           Internal_energy_repulsive:           15.479229

@<TRIPOS>MOLECULE
ZINC000274267583
 43 45 1 0 0
SMALL
USER_CHARGES


@<TRIPOS>ATOM
      1 C1        -16.1763   -4.3261   54.2308 C.3     1  ZINC000274267583    0.0200
      2 O2        -16.2386   -4.7715   55.5871 O.3     1  ZINC000274267583   -0.3100
      3 C3        -15.9133   -3.8679   56.5488 C.ar    1  ZINC000274267583    0.1900
      4 C4        -15.9478   -4.2340   57.8865 C.ar    1  ZINC000274267583   -0.2300
      5 C5        -15.6162   -3.3138   58.8620 C.ar    1  ZINC000274267583    0.0300
      6 C6        -15.2508   -2.0286   58.5061 C.ar    1  ZINC000274267583   -0.7200
      7 S7        -14.8291   -0.8571   59.7528 S.o2    1  ZINC000274267583    2.7000
      8 O8        -15.5188    0.3418   59.4267 O.2     1  ZINC000274267583   -0.9500
      9 O9        -14.9779   -1.5252   60.9981 O.2     1  ZINC000274267583   -0.9500
     10 N10       -13.2146   -0.5269   59.5892 N.am    1  ZINC000274267583   -1.1100
     11 C11       -12.2299   -1.6039   59.7184 C.3     1  ZINC000274267583    0.2100
     12 H12       -12.6709   -2.4343   60.2697 H       1  ZINC000274267583    0.1000
     13 C13       -11.8125   -2.0819   58.3255 C.3     1  ZINC000274267583   -0.1800
     14 C14       -10.5833   -2.9874   58.4748 C.3     1  ZINC000274267583    0.0600
     15 O15        -9.5025   -2.2003   58.9771 O.3     1  ZINC000274267583   -0.3100
     16 C16        -9.7379   -1.4182   60.0638 C.ar    1  ZINC000274267583    0.1100
     17 C17        -8.6485   -0.9390   60.7834 C.ar    1  ZINC000274267583   -0.1100
     18 C18        -8.8433   -0.1380   61.8901 C.ar    1  ZINC000274267583   -0.1600
     19 C19       -10.1305    0.1914   62.2870 C.ar    1  ZINC000274267583    0.0900
     20 O20       -10.3263    0.9828   63.3753 O.3     1  ZINC000274267583   -0.3200
     21 C21        -9.1673    1.5802   63.9601 C.3     1  ZINC000274267583    0.0300
     22 C22       -11.2169   -0.2872   61.5722 C.ar    1  ZINC000274267583   -0.1000
     23 C23       -11.0221   -1.0928   60.4623 C.ar    1  ZINC000274267583   -0.1400
     24 C24       -15.2153   -1.6614   57.1736 C.ar    1  ZINC000274267583    0.0200
     25 C25       -15.5409   -2.5795   56.1940 C.ar    1  ZINC000274267583   -0.1700
     26 H26       -16.8617   -3.4901   54.0911 H       1  ZINC000274267583    0.0600
     27 H27       -15.1604   -4.0055   53.9999 H       1  ZINC000274267583    0.0600
     28 H28       -16.4593   -5.1429   53.5667 H       1  ZINC000274267583    0.1100
     29 H29       -16.2338   -5.2375   58.1649 H       1  ZINC000274267583    0.1400
     30 H30       -15.6428   -3.5984   59.9035 H       1  ZINC000274267583    0.1400
     31 H31       -12.9208    0.3797   59.4081 H       1  ZINC000274267583    0.4200
     32 H32       -12.6286   -2.6425   57.8696 H       1  ZINC000274267583    0.1000
     33 H33       -11.5628   -1.2234   57.7020 H       1  ZINC000274267583    0.0900
     34 H34       -10.8048   -3.7948   59.1727 H       1  ZINC000274267583    0.0700
     35 H35       -10.3140   -3.4039   57.5042 H       1  ZINC000274267583    0.1200
     36 H36        -7.6457   -1.1951   60.4749 H       1  ZINC000274267583    0.1400
     37 H37        -7.9945    0.2315   62.4464 H       1  ZINC000274267583    0.1400
     38 H38        -8.4809    0.7987   64.2860 H       1  ZINC000274267583    0.0600
     39 H39        -8.6735    2.2131   63.2227 H       1  ZINC000274267583    0.0600
     40 H40        -9.4634    2.1844   64.8176 H       1  ZINC000274267583    0.1000
     41 H41       -12.2193   -0.0309   61.8816 H       1  ZINC000274267583    0.1300
     42 H42       -14.9292   -0.6571   56.8981 H       1  ZINC000274267583    0.1500
     43 H43       -15.5129   -2.2922   55.1533 H       1  ZINC000274267583    0.1400
@<TRIPOS>BOND
     1     1     2    1
     2     1    26    1
     3     1    27    1
     4     1    28    1
     5     2     3    1
     6     3    25   ar
     7     3     4   ar
     8     4     5   ar
     9     4    29    1
    10     5     6   ar
    11     5    30    1
    12     6     7    1
    13     6    24   ar
    14     7     8    2
    15     7     9    2
    16     7    10   am
    17    10    11    1
    18    10    31    1
    19    11    12    1
    20    11    23    1
    21    11    13    1
    22    13    14    1
    23    13    32    1
    24    13    33    1
    25    14    15    1
    26    14    34    1
    27    14    35    1
    28    15    16    1
    29    16    23   ar
    30    16    17   ar
    31    17    18   ar
    32    17    36    1
    33    18    19   ar
    34    18    37    1
    35    19    20    1
    36    19    22   ar
    37    20    21    1
    38    21    38    1
    39    21    39    1
    40    21    40    1
    41    22    23   ar
    42    22    41    1
    43    24    25   ar
    44    24    42    1
    45    25    43    1
@<TRIPOS>SUBSTRUCTURE
     1 ZINC000274267583        1 TEMP              0 ****  ****    0 ROOT


##########                                Name:    ZINC000866034032
##########                DOCK_Rotatable_Bonds:                   4
##########                         Heavy_Atoms:                  23
##########                    Molecular_Weight:             383.242
##########                DOCK_Rotatable_Bonds:                   4
##########                       Formal_Charge:           0.0199999
##########                     HBond_Acceptors:                   6
##########                        HBond_Donors:                   1
##########                         Heavy_Atoms:                  23
##########                          Grid_Score:          -23.889601
##########                     Grid_vdw_energy:          -24.922903
##########                      Grid_es_energy:            1.033302
##########           Internal_energy_repulsive:           15.463943

@<TRIPOS>MOLECULE
ZINC000866034032
 42 44 1 0 0
SMALL
USER_CHARGES


@<TRIPOS>ATOM
      1 C1         -2.1467    4.0908   51.2517 C.3     1  ZINC000866034032   -0.1300
      2 C2         -0.8563    3.3452   50.9051 C.3     1  ZINC000866034032   -0.0800
      3 C3         -1.1019    1.8871   50.5119 C.3     1  ZINC000866034032   -0.1300
      4 C4          0.0454    4.1046   49.9198 C.3     1  ZINC000866034032    0.1400
      5 H5         -0.4951    4.8139   49.2930 H       1  ZINC000866034032    0.1100
      6 N6          0.9367    3.2323   49.1511 N.am    1  ZINC000866034032   -0.7000
      7 C7          0.5486    2.7640   47.9484 C.2     1  ZINC000866034032    0.5100
      8 O8         -0.5390    3.0634   47.5033 O.2     1  ZINC000866034032   -0.5300
      9 C9          1.4661    1.8681   47.1568 C.3     1  ZINC000866034032   -0.1100
     10 C10         2.5265    1.3044   48.0673 C.ar    1  ZINC000866034032   -0.0500
     11 C11         3.6685    2.0361   48.3338 C.ar    1  ZINC000866034032   -0.0500
     12 C12         4.6416    1.5193   49.1686 C.ar    1  ZINC000866034032   -0.0900
     13 C13         4.4722    0.2701   49.7375 C.ar    1  ZINC000866034032   -0.0500
     14 Br14        5.8027   -0.4371   50.8800 Br      1  ZINC000866034032    0.0200
     15 C15         3.3288   -0.4617   49.4708 C.ar    1  ZINC000866034032   -0.0200
     16 N16         3.1468   -1.7984   50.0797 N.pl3   1  ZINC000866034032    0.0200
     17 O17         2.1400   -2.4425   49.8449 O.2     1  ZINC000866034032   -0.1600
     18 O18         4.0036   -2.2542   50.8157 O.2     1  ZINC000866034032   -0.1300
     19 C19         2.3541    0.0580   48.6403 C.ar    1  ZINC000866034032   -0.0300
     20 C20         0.7205    4.7534   51.1393 C.3     1  ZINC000866034032   -0.1500
     21 H21         0.3339    5.7250   51.4467 H       1  ZINC000866034032    0.1200
     22 C22         2.2606    4.6350   51.1063 C.3     1  ZINC000866034032   -0.1400
     23 C23         2.5569    3.3450   51.9023 C.3     1  ZINC000866034032    0.0500
     24 O24         1.3458    2.5647   51.8045 O.3     1  ZINC000866034032   -0.3600
     25 C25         0.2530    3.5194   51.9528 C.3     1  ZINC000866034032    0.0600
     26 H26        -0.0650    3.6971   52.9801 H       1  ZINC000866034032    0.1000
     27 H27        -1.9011    5.0684   51.6667 H       1  ZINC000866034032    0.0600
     28 H28        -2.7456    4.2189   50.3501 H       1  ZINC000866034032    0.0700
     29 H29        -2.7124    3.5164   51.9852 H       1  ZINC000866034032    0.0700
     30 H30        -1.6055    1.8511   49.5460 H       1  ZINC000866034032    0.0600
     31 H31        -0.1482    1.3636   50.4441 H       1  ZINC000866034032    0.0600
     32 H32        -1.7267    1.4078   51.2655 H       1  ZINC000866034032    0.0600
     33 H33         1.8062    2.9919   49.5077 H       1  ZINC000866034032    0.4100
     34 H34         0.8899    1.0517   46.7212 H       1  ZINC000866034032    0.1100
     35 H35         1.9389    2.4440   46.3613 H       1  ZINC000866034032    0.1200
     36 H36         3.8007    3.0115   47.8894 H       1  ZINC000866034032    0.1500
     37 H37         5.5342    2.0907   49.3762 H       1  ZINC000866034032    0.1600
     38 H38         1.4613   -0.5130   48.4324 H       1  ZINC000866034032    0.1600
     39 H39         2.6142    4.5398   50.0797 H       1  ZINC000866034032    0.0800
     40 H40         2.7201    5.4966   51.5909 H       1  ZINC000866034032    0.0800
     41 H41         3.3923    2.8065   51.4551 H       1  ZINC000866034032    0.0900
     42 H42         2.7718    3.5830   52.9441 H       1  ZINC000866034032    0.0600
@<TRIPOS>BOND
     1     1     2    1
     2     1    27    1
     3     1    28    1
     4     1    29    1
     5     2    25    1
     6     2     3    1
     7     2     4    1
     8     3    30    1
     9     3    31    1
    10     3    32    1
    11     4     5    1
    12     4     6    1
    13     4    20    1
    14     6     7   am
    15     6    33    1
    16     7     8    2
    17     7     9    1
    18     9    10    1
    19     9    34    1
    20     9    35    1
    21    10    19   ar
    22    10    11   ar
    23    11    12   ar
    24    11    36    1
    25    12    13   ar
    26    12    37    1
    27    13    14    1
    28    13    15   ar
    29    15    16    1
    30    15    19   ar
    31    16    17    2
    32    16    18    2
    33    19    38    1
    34    20    21    1
    35    20    25    1
    36    20    22    1
    37    22    23    1
    38    22    39    1
    39    22    40    1
    40    23    24    1
    41    23    41    1
    42    23    42    1
    43    24    25    1
    44    25    26    1
@<TRIPOS>SUBSTRUCTURE
     1 ZINC000866034032        1 TEMP              0 ****  ****    0 ROOT


##########                                Name:    ZINC001708427409
##########                DOCK_Rotatable_Bonds:                   6
##########                         Heavy_Atoms:                  24
##########                    Molecular_Weight:             334.505
##########                DOCK_Rotatable_Bonds:                   6
##########                       Formal_Charge:          -0.0200006
##########                     HBond_Acceptors:                   5
##########                        HBond_Donors:                   1
##########                         Heavy_Atoms:                  24
##########                          Grid_Score:          -23.871990
##########                     Grid_vdw_energy:          -24.006285
##########                      Grid_es_energy:            0.134294
##########           Internal_energy_repulsive:           20.347692

@<TRIPOS>MOLECULE
ZINC001708427409
 58 60 1 0 0
SMALL
USER_CHARGES


@<TRIPOS>ATOM
      1 C1        -15.1781   -5.6738   56.4517 C.3     1  ZINC001708427409   -0.1500
      2 C2        -15.0680   -4.2522   55.8971 C.3     1  ZINC001708427409   -0.1200
      3 C3        -14.7862   -3.2782   57.0428 C.3     1  ZINC001708427409    0.0000
      4 H4        -14.0182   -3.6956   57.6940 H       1  ZINC001708427409    0.0800
      5 C5        -16.0683   -3.0516   57.8464 C.3     1  ZINC001708427409   -0.1400
      6 C6        -14.3076   -1.9649   56.4796 C.2     1  ZINC001708427409    0.1800
      7 N7        -15.0542   -1.0212   55.9796 N.2     1  ZINC001708427409   -0.2800
      8 N8        -14.3216   -0.0392   55.5911 N.2     1  ZINC001708427409   -0.3200
      9 C9        -13.0582   -0.3058   55.8242 C.2     1  ZINC001708427409    0.3600
     10 N10       -11.9773    0.5140   55.5409 N.3     1  ZINC001708427409   -0.4200
     11 C11       -12.1430    1.8528   56.1719 C.3     1  ZINC001708427409    0.0400
     12 C12       -11.2316    2.7909   55.3506 C.3     1  ZINC001708427409   -0.0900
     13 H13       -10.2729    2.9221   55.8522 H       1  ZINC001708427409    0.0900
     14 C14       -11.9119    4.1456   55.1435 C.3     1  ZINC001708427409   -0.1500
     15 C15       -11.0344    2.0703   53.9900 C.3     1  ZINC001708427409   -0.0800
     16 H16       -11.3505    2.7031   53.1608 H       1  ZINC001708427409    0.0900
     17 C17        -9.5503    1.7201   53.8773 C.3     1  ZINC001708427409   -0.1100
     18 C18        -9.3365    0.7416   52.7229 C.3     1  ZINC001708427409   -0.1200
     19 C19       -10.0362   -0.5718   53.0658 C.3     1  ZINC001708427409   -0.1100
     20 C20       -11.5232   -0.3523   53.2564 C.3     1  ZINC001708427409   -0.1000
     21 C21       -11.9137    0.8271   54.0970 C.3     1  ZINC001708427409    0.1000
     22 H22       -12.9219    1.1142   53.7980 H       1  ZINC001708427409    0.0600
     23 N23       -13.0101   -1.5402   56.4037 N.pl3   1  ZINC001708427409   -0.4700
     24 C24       -11.8153   -2.2645   56.8443 C.3     1  ZINC001708427409    0.0800
     25 C25       -11.3697   -1.7318   58.2075 C.3     1  ZINC001708427409    0.1200
     26 C26       -12.5797   -1.6400   59.1394 C.3     1  ZINC001708427409   -0.1800
     27 C27       -10.3319   -2.6801   58.8112 C.3     1  ZINC001708427409   -0.1500
     28 O28       -10.7928   -0.4344   58.0466 O.3     1  ZINC001708427409   -0.5400
     29 H29       -15.9917   -5.7194   57.1756 H       1  ZINC001708427409    0.0600
     30 H30       -15.3789   -6.3678   55.6354 H       1  ZINC001708427409    0.0600
     31 H31       -14.2423   -5.9472   56.9390 H       1  ZINC001708427409    0.0500
     32 H32       -14.2544   -4.2066   55.1731 H       1  ZINC001708427409    0.0700
     33 H33       -16.0038   -3.9788   55.4097 H       1  ZINC001708427409    0.0800
     34 H34       -16.4144   -4.0014   58.2539 H       1  ZINC001708427409    0.0700
     35 H35       -15.8675   -2.3576   58.6627 H       1  ZINC001708427409    0.0500
     36 H36       -16.8363   -2.6340   57.1953 H       1  ZINC001708427409    0.0700
     37 H37       -13.1812    2.1781   56.1051 H       1  ZINC001708427409    0.0600
     38 H38       -11.8195    1.8246   57.2124 H       1  ZINC001708427409    0.0800
     39 H39       -12.0893    4.6149   56.1111 H       1  ZINC001708427409    0.0600
     40 H40       -11.2686    4.7869   54.5411 H       1  ZINC001708427409    0.0600
     41 H41       -12.8626    4.0001   54.6305 H       1  ZINC001708427409    0.0600
     42 H42        -8.9765    2.6285   53.6934 H       1  ZINC001708427409    0.0600
     43 H43        -9.2142    1.2623   54.8076 H       1  ZINC001708427409    0.0700
     44 H44        -9.7617    1.1552   51.8086 H       1  ZINC001708427409    0.0600
     45 H45        -8.2698    0.5635   52.5865 H       1  ZINC001708427409    0.0600
     46 H46        -9.8792   -1.2843   52.2561 H       1  ZINC001708427409    0.0600
     47 H47        -9.6121   -0.9751   53.9854 H       1  ZINC001708427409    0.0600
     48 H48       -11.9777   -0.2233   52.2740 H       1  ZINC001708427409    0.0600
     49 H49       -11.9457   -1.2501   53.7072 H       1  ZINC001708427409    0.0700
     50 H50       -12.0441   -3.3270   56.9264 H       1  ZINC001708427409    0.0900
     51 H51       -11.0148   -2.1204   56.1185 H       1  ZINC001708427409    0.1000
     52 H52       -13.0197   -2.6297   59.2622 H       1  ZINC001708427409    0.0700
     53 H53       -12.2623   -1.2604   60.1107 H       1  ZINC001708427409    0.0700
     54 H54       -13.3191   -0.9644   58.7094 H       1  ZINC001708427409    0.0600
     55 H55        -9.5073   -2.8102   58.1103 H       1  ZINC001708427409    0.0700
     56 H56        -9.9537   -2.2594   59.7430 H       1  ZINC001708427409    0.0700
     57 H57       -10.7951   -3.6465   59.0106 H       1  ZINC001708427409    0.0700
     58 H58       -11.3721    0.2016   57.6049 H       1  ZINC001708427409    0.3800
@<TRIPOS>BOND
     1     1     2    1
     2     1    29    1
     3     1    30    1
     4     1    31    1
     5     2     3    1
     6     2    32    1
     7     2    33    1
     8     3     4    1
     9     3     5    1
    10     3     6    1
    11     5    34    1
    12     5    35    1
    13     5    36    1
    14     6    23    1
    15     6     7    2
    16     7     8    1
    17     8     9    2
    18     9    10    1
    19     9    23    1
    20    10    21    1
    21    10    11    1
    22    11    12    1
    23    11    37    1
    24    11    38    1
    25    12    13    1
    26    12    14    1
    27    12    15    1
    28    14    39    1
    29    14    40    1
    30    14    41    1
    31    15    16    1
    32    15    21    1
    33    15    17    1
    34    17    18    1
    35    17    42    1
    36    17    43    1
    37    18    19    1
    38    18    44    1
    39    18    45    1
    40    19    20    1
    41    19    46    1
    42    19    47    1
    43    20    21    1
    44    20    48    1
    45    20    49    1
    46    21    22    1
    47    23    24    1
    48    24    25    1
    49    24    50    1
    50    24    51    1
    51    25    26    1
    52    25    27    1
    53    25    28    1
    54    26    52    1
    55    26    53    1
    56    26    54    1
    57    27    55    1
    58    27    56    1
    59    27    57    1
    60    28    58    1
@<TRIPOS>SUBSTRUCTURE
     1 ZINC001708427409        1 TEMP              0 ****  ****    0 ROOT


##########                                Name:    ZINC000794876634
##########                DOCK_Rotatable_Bonds:                   4
##########                         Heavy_Atoms:                  24
##########                    Molecular_Weight:             389.249
##########                DOCK_Rotatable_Bonds:                   4
##########                       Formal_Charge:        -4.47035e-08
##########                     HBond_Acceptors:                   5
##########                        HBond_Donors:                   0
##########                         Heavy_Atoms:                  24
##########                          Grid_Score:          -23.858046
##########                     Grid_vdw_energy:          -21.783194
##########                      Grid_es_energy:           -2.074852
##########           Internal_energy_repulsive:           16.859711

@<TRIPOS>MOLECULE
ZINC000794876634
 41 43 1 0 0
SMALL
USER_CHARGES


@<TRIPOS>ATOM
      1 C1        -16.2300   -4.2919   58.3922 C.3     1  ZINC000794876634    0.0200
      2 O2        -15.8793   -3.2508   59.3060 O.3     1  ZINC000794876634   -0.3000
      3 C3        -14.9441   -2.3570   58.8929 C.ar    1  ZINC000794876634    0.1300
      4 C4        -14.2871   -2.5514   57.6849 C.ar    1  ZINC000794876634   -0.1800
      5 C5        -13.3372   -1.6492   57.2602 C.ar    1  ZINC000794876634   -0.0400
      6 C6        -12.6267   -1.8639   55.9487 C.3     1  ZINC000794876634   -0.1200
      7 C7        -13.0322   -0.5313   58.0479 C.ar    1  ZINC000794876634   -0.1000
      8 C8        -12.0222    0.4313   57.5988 C.2     1  ZINC000794876634    0.0600
      9 C9        -10.7331    0.3204   58.0334 C.2     1  ZINC000794876634   -0.1700
     10 C10       -10.1775   -0.6927   58.9470 C.2     1  ZINC000794876634    0.5700
     11 O11       -10.7949   -1.6053   59.4648 O.2     1  ZINC000794876634   -0.4900
     12 N12        -8.8692   -0.4325   59.1077 N.am    1  ZINC000794876634   -0.5300
     13 C13        -7.9688   -1.2253   59.9485 C.3     1  ZINC000794876634    0.0800
     14 C14        -8.4772    0.6792   58.3781 C.ar    1  ZINC000794876634    0.3700
     15 N15        -7.2983    1.2755   58.2507 N.ar    1  ZINC000794876634   -0.4900
     16 C16        -7.1351    2.3414   57.4934 C.ar    1  ZINC000794876634    0.1800
     17 C17        -8.1885    2.8965   56.7887 C.ar    1  ZINC000794876634   -0.1800
     18 Br18       -7.9194    4.4263   55.7103 Br      1  ZINC000794876634   -0.0200
     19 C19        -9.4448    2.3154   56.8835 C.ar    1  ZINC000794876634    0.0000
     20 C20        -9.5861    1.1876   57.6852 C.ar    1  ZINC000794876634   -0.1400
     21 C21       -13.6968   -0.3363   59.2670 C.ar    1  ZINC000794876634   -0.1400
     22 C22       -14.6505   -1.2435   59.6809 C.ar    1  ZINC000794876634    0.0900
     23 O23       -15.2976   -1.0575   60.8625 O.3     1  ZINC000794876634   -0.3000
     24 C24       -14.9484    0.1044   61.6176 C.3     1  ZINC000794876634    0.0200
     25 H25       -16.9850   -4.9341   58.8455 H       1  ZINC000794876634    0.1000
     26 H26       -16.6280   -3.8532   57.4771 H       1  ZINC000794876634    0.0600
     27 H27       -15.3444   -4.8823   58.1568 H       1  ZINC000794876634    0.0600
     28 H28       -14.5214   -3.4128   57.0770 H       1  ZINC000794876634    0.1400
     29 H29       -13.1842   -1.3758   55.1492 H       1  ZINC000794876634    0.0800
     30 H30       -11.6244   -1.4390   56.0046 H       1  ZINC000794876634    0.0700
     31 H31       -12.5574   -2.9322   55.7436 H       1  ZINC000794876634    0.0700
     32 H32       -12.2980    1.2282   56.9242 H       1  ZINC000794876634    0.1500
     33 H33        -8.5263   -2.0405   60.4098 H       1  ZINC000794876634    0.0900
     34 H34        -7.1661   -1.6352   59.3355 H       1  ZINC000794876634    0.0800
     35 H35        -7.5441   -0.5900   60.7257 H       1  ZINC000794876634    0.0800
     36 H36        -6.1564    2.7924   57.4212 H       1  ZINC000794876634    0.1800
     37 H37       -10.2878    2.7245   56.3466 H       1  ZINC000794876634    0.1600
     38 H38       -13.4657    0.5235   59.8783 H       1  ZINC000794876634    0.1400
     39 H39       -13.9092    0.0307   61.9380 H       1  ZINC000794876634    0.0500
     40 H40       -15.0756    0.9921   60.9981 H       1  ZINC000794876634    0.0600
     41 H41       -15.5942    0.1767   62.4927 H       1  ZINC000794876634    0.1100
@<TRIPOS>BOND
     1     1     2    1
     2     1    25    1
     3     1    26    1
     4     1    27    1
     5     2     3    1
     6     3    22   ar
     7     3     4   ar
     8     4     5   ar
     9     4    28    1
    10     5     6    1
    11     5     7   ar
    12     6    29    1
    13     6    30    1
    14     6    31    1
    15     7     8    1
    16     7    21   ar
    17     8     9    2
    18     8    32    1
    19     9    20    1
    20     9    10    1
    21    10    11    2
    22    10    12   am
    23    12    13    1
    24    12    14    1
    25    13    33    1
    26    13    34    1
    27    13    35    1
    28    14    20   ar
    29    14    15   ar
    30    15    16   ar
    31    16    17   ar
    32    16    36    1
    33    17    18    1
    34    17    19   ar
    35    19    20   ar
    36    19    37    1
    37    21    22   ar
    38    21    38    1
    39    22    23    1
    40    23    24    1
    41    24    39    1
    42    24    40    1
    43    24    41    1
@<TRIPOS>SUBSTRUCTURE
     1 ZINC000794876634        1 TEMP              0 ****  ****    0 ROOT


##########                                Name:    ZINC001013196242
##########                DOCK_Rotatable_Bonds:                   5
##########                         Heavy_Atoms:                  24
##########                    Molecular_Weight:              349.86
##########                DOCK_Rotatable_Bonds:                   5
##########                       Formal_Charge:        -3.05474e-07
##########                     HBond_Acceptors:                   6
##########                        HBond_Donors:                   1
##########                         Heavy_Atoms:                  24
##########                          Grid_Score:          -23.843042
##########                     Grid_vdw_energy:          -23.353367
##########                      Grid_es_energy:           -0.489676
##########           Internal_energy_repulsive:           13.869264

@<TRIPOS>MOLECULE
ZINC001013196242
 48 51 1 0 0
SMALL
USER_CHARGES


@<TRIPOS>ATOM
      1 C1         -1.1830    2.1436   56.4492 C.3     1  ZINC001013196242   -0.1600
      2 C2         -2.0399    3.3289   56.0000 C.3     1  ZINC001013196242    0.1400
      3 H3         -1.6992    4.2399   56.4919 H       1  ZINC001013196242    0.0800
      4 C4         -3.5207    3.0674   56.3470 C.3     1  ZINC001013196242   -0.1400
      5 C5         -4.2729    3.6504   55.1215 C.3     1  ZINC001013196242    0.1300
      6 H6         -4.3985    4.7289   55.2171 H       1  ZINC001013196242    0.1100
      7 N7         -5.5665    2.9883   54.9357 N.am    1  ZINC001013196242   -0.7200
      8 C8         -6.5486    3.1616   55.8422 C.2     1  ZINC001013196242    0.5400
      9 O9         -6.3621    3.8671   56.8109 O.2     1  ZINC001013196242   -0.5200
     10 C10        -7.8786    2.4791   55.6519 C.3     1  ZINC001013196242   -0.1400
     11 C11        -8.1879    1.4224   56.7271 C.3     1  ZINC001013196242   -0.0800
     12 C12        -8.8351    2.5536   57.5334 C.3     1  ZINC001013196242   -0.1600
     13 C13        -9.7637    2.4516   58.7382 C.3     1  ZINC001013196242   -0.1700
     14 C14        -8.4002    3.1348   58.8742 C.3     1  ZINC001013196242   -0.1400
     15 C15        -9.0681    3.2830   56.2059 C.3     1  ZINC001013196242   -0.0800
     16 C16        -3.3003    3.3049   53.9663 C.3     1  ZINC001013196242    0.0800
     17 N17        -1.9511    3.4854   54.5408 N.am    1  ZINC001013196242   -0.6000
     18 C18        -0.8287    3.7475   53.8424 C.2     1  ZINC001013196242    0.6100
     19 O19         0.2333    3.8753   54.4229 O.2     1  ZINC001013196242   -0.5400
     20 C20        -0.8870    3.8785   52.3828 C.2     1  ZINC001013196242   -0.0400
     21 C21        -1.4297    2.9653   51.5037 C.2     1  ZINC001013196242   -0.1400
     22 C22        -1.2727    3.4901   50.2165 C.2     1  ZINC001013196242   -0.1200
     23 Cl23       -1.7847    2.7397   48.7372 Cl      1  ZINC001013196242   -0.0400
     24 C24        -0.6503    4.6886   50.3296 C.2     1  ZINC001013196242    0.0400
     25 N25        -0.4152    4.9382   51.6418 N.pl3   1  ZINC001013196242   -0.4000
     26 C26         0.2395    6.1331   52.1803 C.3     1  ZINC001013196242    0.0700
     27 H27        -0.1398    2.3328   56.1961 H       1  ZINC001013196242    0.0700
     28 H28        -1.2777    2.0148   57.5275 H       1  ZINC001013196242    0.0700
     29 H29        -1.5211    1.2387   55.9442 H       1  ZINC001013196242    0.0600
     30 H30        -3.7112    1.9985   56.4436 H       1  ZINC001013196242    0.0900
     31 H31        -3.8020    3.5943   57.2586 H       1  ZINC001013196242    0.0900
     32 H32        -5.7161    2.4251   54.1602 H       1  ZINC001013196242    0.4000
     33 H33        -8.0295    2.1233   54.6327 H       1  ZINC001013196242    0.1000
     34 H34        -8.8941    0.6593   56.3997 H       1  ZINC001013196242    0.1000
     35 H35        -7.2981    1.0039   57.1973 H       1  ZINC001013196242    0.0700
     36 H36       -10.6488    3.0877   58.7470 H       1  ZINC001013196242    0.1000
     37 H37        -9.8841    1.4715   59.1997 H       1  ZINC001013196242    0.0900
     38 H38        -7.6237    2.6040   59.4250 H       1  ZINC001013196242    0.0900
     39 H39        -8.3884    4.2203   58.9723 H       1  ZINC001013196242    0.1000
     40 H40        -8.8842    4.3560   56.2585 H       1  ZINC001013196242    0.0800
     41 H41       -10.0194    3.0378   55.7335 H       1  ZINC001013196242    0.0900
     42 H42        -3.4428    2.2728   53.6464 H       1  ZINC001013196242    0.0800
     43 H43        -3.4488    3.9866   53.1288 H       1  ZINC001013196242    0.1000
     44 H44        -1.8890    2.0222   51.7605 H       1  ZINC001013196242    0.1600
     45 H45        -0.3880    5.3403   49.5092 H       1  ZINC001013196242    0.1800
     46 H46        -0.5173    6.8573   52.4819 H       1  ZINC001013196242    0.0800
     47 H47         0.8438    5.8579   53.0446 H       1  ZINC001013196242    0.1000
     48 H48         0.8789    6.5731   51.4151 H       1  ZINC001013196242    0.0900
@<TRIPOS>BOND
     1     1     2    1
     2     1    27    1
     3     1    28    1
     4     1    29    1
     5     2     3    1
     6     2    17    1
     7     2     4    1
     8     4     5    1
     9     4    30    1
    10     4    31    1
    11     5     6    1
    12     5     7    1
    13     5    16    1
    14     7     8   am
    15     7    32    1
    16     8     9    2
    17     8    10    1
    18    10    15    1
    19    10    11    1
    20    10    33    1
    21    11    12    1
    22    11    34    1
    23    11    35    1
    24    12    14    1
    25    12    13    1
    26    12    15    1
    27    13    14    1
    28    13    36    1
    29    13    37    1
    30    14    38    1
    31    14    39    1
    32    15    40    1
    33    15    41    1
    34    16    17    1
    35    16    42    1
    36    16    43    1
    37    17    18   am
    38    18    19    2
    39    18    20    1
    40    20    25    1
    41    20    21    2
    42    21    22    1
    43    21    44    1
    44    22    23    1
    45    22    24    2
    46    24    25    1
    47    24    45    1
    48    25    26    1
    49    26    46    1
    50    26    47    1
    51    26    48    1
@<TRIPOS>SUBSTRUCTURE
     1 ZINC001013196242        1 TEMP              0 ****  ****    0 ROOT


##########                                Name:    ZINC000464706598
##########                DOCK_Rotatable_Bonds:                   4
##########                         Heavy_Atoms:                  26
##########                    Molecular_Weight:             412.286
##########                DOCK_Rotatable_Bonds:                   4
##########                       Formal_Charge:           0.0100001
##########                     HBond_Acceptors:                   5
##########                        HBond_Donors:                   0
##########                         Heavy_Atoms:                  26
##########                          Grid_Score:          -23.839645
##########                     Grid_vdw_energy:          -23.316687
##########                      Grid_es_energy:           -0.522960
##########           Internal_energy_repulsive:           57.281490

@<TRIPOS>MOLECULE
ZINC000464706598
 44 47 1 0 0
SMALL
USER_CHARGES


@<TRIPOS>ATOM
      1 O1         -8.2027    3.0272   54.0201 O.2     1  ZINC000464706598   -0.5000
      2 C2         -9.0629    2.4528   54.6596 C.2     1  ZINC000464706598    0.5900
      3 C3         -9.1979    2.7044   56.1058 C.2     1  ZINC000464706598   -0.2800
      4 C4         -8.8690    1.8314   57.1237 C.2     1  ZINC000464706598    0.1300
      5 N5         -9.1442    2.4486   58.2870 N.pl3   1  ZINC000464706598   -0.3100
      6 C6         -8.9547    1.9079   59.5662 C.ar    1  ZINC000464706598    0.1700
      7 C7         -8.7079    2.7456   60.6457 C.ar    1  ZINC000464706598   -0.1300
      8 C8         -8.5220    2.2103   61.9052 C.ar    1  ZINC000464706598   -0.0600
      9 C9         -8.5810    0.8406   62.0918 C.ar    1  ZINC000464706598   -0.1000
     10 Br10       -8.3253    0.1111   63.8176 Br      1  ZINC000464706598   -0.0400
     11 C11        -8.8273    0.0037   61.0178 C.ar    1  ZINC000464706598   -0.0700
     12 C12        -9.0191    0.5342   59.7572 C.ar    1  ZINC000464706598   -0.1100
     13 N13        -9.6509    3.7219   58.0039 N.2     1  ZINC000464706598   -0.2800
     14 C14        -9.6822    3.8867   56.7100 C.2     1  ZINC000464706598    0.0700
     15 N15        -9.8966    1.5904   54.0450 N.am    1  ZINC000464706598   -0.6100
     16 C16       -10.9490    0.8884   54.7966 C.3     1  ZINC000464706598    0.0400
     17 C17       -10.8520   -0.6086   54.4807 C.3     1  ZINC000464706598    0.0500
     18 O18       -10.8548   -0.7917   53.0629 O.3     1  ZINC000464706598   -0.3700
     19 C19        -9.7414   -0.1949   52.3936 C.3     1  ZINC000464706598    0.0500
     20 C20        -9.7851    1.3275   52.6014 C.3     1  ZINC000464706598    0.1600
     21 H21       -10.6461    1.7448   52.0792 H       1  ZINC000464706598    0.0900
     22 C22        -8.5192    1.9489   52.0700 C.ar    1  ZINC000464706598   -0.0500
     23 C23        -7.2957    1.3665   52.3435 C.ar    1  ZINC000464706598   -0.1000
     24 C24        -6.1345    1.9364   51.8561 C.ar    1  ZINC000464706598   -0.1100
     25 C25        -6.1968    3.0886   51.0948 C.ar    1  ZINC000464706598   -0.1200
     26 C26        -7.4203    3.6705   50.8205 C.ar    1  ZINC000464706598   -0.1100
     27 C27        -8.5819    3.0981   51.3043 C.ar    1  ZINC000464706598   -0.1000
     28 H28        -8.4659    0.8363   57.0074 H       1  ZINC000464706598    0.1900
     29 H29        -8.6610    3.8148   60.5006 H       1  ZINC000464706598    0.1400
     30 H30        -8.3298    2.8615   62.7452 H       1  ZINC000464706598    0.1500
     31 H31        -8.8733   -1.0650   61.1661 H       1  ZINC000464706598    0.1500
     32 H32        -9.2117   -0.1194   58.9193 H       1  ZINC000464706598    0.1500
     33 H33       -10.0247    4.7698   56.1911 H       1  ZINC000464706598    0.2100
     34 H34       -10.8057    1.0481   55.8653 H       1  ZINC000464706598    0.1200
     35 H35       -11.9272    1.2642   54.4966 H       1  ZINC000464706598    0.0800
     36 H36        -9.9283   -1.0096   54.8978 H       1  ZINC000464706598    0.0600
     37 H37       -11.7050   -1.1287   54.9166 H       1  ZINC000464706598    0.1100
     38 H38        -8.8136   -0.5943   52.8031 H       1  ZINC000464706598    0.0600
     39 H39        -9.7953   -0.4172   51.3279 H       1  ZINC000464706598    0.1100
     40 H40        -7.2470    0.4663   52.9383 H       1  ZINC000464706598    0.1100
     41 H41        -5.1785    1.4818   52.0703 H       1  ZINC000464706598    0.1200
     42 H42        -5.2895    3.5343   50.7145 H       1  ZINC000464706598    0.1200
     43 H43        -7.4690    4.5709   50.2260 H       1  ZINC000464706598    0.1200
     44 H44        -9.5378    3.5528   51.0901 H       1  ZINC000464706598    0.1100
@<TRIPOS>BOND
     1     1     2    2
     2     2     3    1
     3     2    15   am
     4     3    14    1
     5     3     4    2
     6     4     5    1
     7     4    28    1
     8     5     6    1
     9     5    13    1
    10     6    12   ar
    11     6     7   ar
    12     7     8   ar
    13     7    29    1
    14     8     9   ar
    15     8    30    1
    16     9    10    1
    17     9    11   ar
    18    11    12   ar
    19    11    31    1
    20    12    32    1
    21    13    14    2
    22    14    33    1
    23    15    20    1
    24    15    16    1
    25    16    17    1
    26    16    34    1
    27    16    35    1
    28    17    18    1
    29    17    36    1
    30    17    37    1
    31    18    19    1
    32    19    20    1
    33    19    38    1
    34    19    39    1
    35    20    21    1
    36    20    22    1
    37    22    27   ar
    38    22    23   ar
    39    23    24   ar
    40    23    40    1
    41    24    25   ar
    42    24    41    1
    43    25    26   ar
    44    25    42    1
    45    26    27   ar
    46    26    43    1
    47    27    44    1
@<TRIPOS>SUBSTRUCTURE
     1 ZINC000464706598        1 TEMP              0 ****  ****    0 ROOT


##########                                Name:    ZINC001456096501
##########                DOCK_Rotatable_Bonds:                   7
##########                         Heavy_Atoms:                  24
##########                    Molecular_Weight:             333.431
##########                DOCK_Rotatable_Bonds:                   7
##########                       Formal_Charge:          -0.0200003
##########                     HBond_Acceptors:                   6
##########                        HBond_Donors:                   0
##########                         Heavy_Atoms:                  24
##########                          Grid_Score:          -23.827623
##########                     Grid_vdw_energy:          -22.437265
##########                      Grid_es_energy:           -1.390357
##########           Internal_energy_repulsive:          143.171524

@<TRIPOS>MOLECULE
ZINC001456096501
 51 52 1 0 0
SMALL
USER_CHARGES


@<TRIPOS>ATOM
      1 C1          2.5915   -0.4931   49.7672 C.3     1  ZINC001456096501    0.0400
      2 O2          1.3335    0.1374   49.5188 O.3     1  ZINC001456096501   -0.2900
      3 C3          1.2500    0.9341   48.4268 C.ar    1  ZINC001456096501    0.3700
      4 N4          2.0402    0.7130   47.3903 N.ar    1  ZINC001456096501   -0.5400
      5 C5          1.9920    1.4638   46.3068 C.ar    1  ZINC001456096501    0.1600
      6 C6          1.1068    2.5219   46.2075 C.ar    1  ZINC001456096501   -0.2200
      7 C7          0.2561    2.7988   47.2631 C.ar    1  ZINC001456096501   -0.0200
      8 C8          0.3213    1.9856   48.4002 C.ar    1  ZINC001456096501   -0.2000
      9 C9         -0.5632    2.2358   49.5542 C.2     1  ZINC001456096501    0.5900
     10 O10        -1.6008    1.6130   49.6712 O.2     1  ZINC001456096501   -0.5100
     11 N11        -0.2208    3.1547   50.4788 N.am    1  ZINC001456096501   -0.6200
     12 C12         0.9990    3.9753   50.4606 C.3     1  ZINC001456096501    0.1000
     13 C13         0.9754    4.8590   51.7256 C.3     1  ZINC001456096501   -0.1200
     14 C14         0.0250    4.0823   52.6745 C.3     1  ZINC001456096501   -0.1200
     15 H15         0.5566    3.2840   53.1924 H       1  ZINC001456096501    0.0900
     16 C16        -0.6462    5.0278   53.6728 C.3     1  ZINC001456096501    0.1200
     17 N17        -0.9802    4.2912   54.8943 N.am    1  ZINC001456096501   -0.6200
     18 C18        -2.2243    3.5213   54.9683 C.3     1  ZINC001456096501    0.0600
     19 C19        -0.1428    4.3217   55.9499 C.2     1  ZINC001456096501    0.5200
     20 O20         0.8872    4.9590   55.8887 O.2     1  ZINC001456096501   -0.5300
     21 C21        -0.4864    3.5639   57.2064 C.3     1  ZINC001456096501   -0.0800
     22 C22         0.7347    3.5231   58.1274 C.3     1  ZINC001456096501   -0.1300
     23 C23        -1.6430    4.2631   57.9235 C.3     1  ZINC001456096501   -0.1500
     24 C24        -0.8997    2.1361   56.8440 C.3     1  ZINC001456096501   -0.1700
     25 C25        -1.0107    3.5082   51.6724 C.3     1  ZINC001456096501    0.1200
     26 H26         2.8531   -1.1281   48.9207 H       1  ZINC001456096501    0.0600
     27 H27         3.3597    0.2686   49.9010 H       1  ZINC001456096501    0.0600
     28 H28         2.5216   -1.1009   50.6693 H       1  ZINC001456096501    0.1000
     29 H29         2.6559    1.2488   45.4826 H       1  ZINC001456096501    0.1700
     30 H30         1.0802    3.1274   45.3135 H       1  ZINC001456096501    0.1500
     31 H31        -0.4436    3.6198   47.2093 H       1  ZINC001456096501    0.1500
     32 H32         1.8788    3.3320   50.4742 H       1  ZINC001456096501    0.0700
     33 H33         1.0101    4.6033   49.5699 H       1  ZINC001456096501    0.0700
     34 H34         1.9725    4.9387   52.1589 H       1  ZINC001456096501    0.0900
     35 H35         0.5723    5.8460   51.4989 H       1  ZINC001456096501    0.0800
     36 H36         0.0351    5.8434   53.9151 H       1  ZINC001456096501    0.0800
     37 H37        -1.5571    5.4337   53.2327 H       1  ZINC001456096501    0.0900
     38 H38        -2.0319    2.4903   54.6715 H       1  ZINC001456096501    0.0600
     39 H39        -2.6033    3.5405   55.9902 H       1  ZINC001456096501    0.0900
     40 H40        -2.9637    3.9602   54.2983 H       1  ZINC001456096501    0.0700
     41 H41         1.0292    4.5402   58.3856 H       1  ZINC001456096501    0.0600
     42 H42         0.4862    2.9750   59.0362 H       1  ZINC001456096501    0.0600
     43 H43         1.5586    3.0250   57.6164 H       1  ZINC001456096501    0.0600
     44 H44        -2.4674    4.4101   57.2258 H       1  ZINC001456096501    0.0700
     45 H45        -1.9785    3.6473   58.7580 H       1  ZINC001456096501    0.0700
     46 H46        -1.3070    5.2302   58.2977 H       1  ZINC001456096501    0.0600
     47 H47        -0.0758    1.6379   56.3330 H       1  ZINC001456096501    0.0600
     48 H48        -1.1482    1.5879   57.7527 H       1  ZINC001456096501    0.0700
     49 H49        -1.7697    2.1652   56.1878 H       1  ZINC001456096501    0.0800
     50 H50        -1.7603    4.2609   51.4285 H       1  ZINC001456096501    0.0800
     51 H51        -1.4858    2.6185   52.0857 H       1  ZINC001456096501    0.0700
@<TRIPOS>BOND
     1     1     2    1
     2     1    26    1
     3     1    27    1
     4     1    28    1
     5     2     3    1
     6     3     8   ar
     7     3     4   ar
     8     4     5   ar
     9     5     6   ar
    10     5    29    1
    11     6     7   ar
    12     6    30    1
    13     7     8   ar
    14     7    31    1
    15     8     9    1
    16     9    10    2
    17     9    11   am
    18    11    25    1
    19    11    12    1
    20    12    13    1
    21    12    32    1
    22    12    33    1
    23    13    14    1
    24    13    34    1
    25    13    35    1
    26    14    15    1
    27    14    16    1
    28    14    25    1
    29    16    17    1
    30    16    36    1
    31    16    37    1
    32    17    18    1
    33    17    19   am
    34    18    38    1
    35    18    39    1
    36    18    40    1
    37    19    20    2
    38    19    21    1
    39    21    22    1
    40    21    23    1
    41    21    24    1
    42    22    41    1
    43    22    42    1
    44    22    43    1
    45    23    44    1
    46    23    45    1
    47    23    46    1
    48    24    47    1
    49    24    48    1
    50    24    49    1
    51    25    50    1
    52    25    51    1
@<TRIPOS>SUBSTRUCTURE
     1 ZINC001456096501        1 TEMP              0 ****  ****    0 ROOT


##########                                Name:    ZINC000371438955
##########                DOCK_Rotatable_Bonds:                   4
##########                         Heavy_Atoms:                  25
##########                    Molecular_Weight:             387.499
##########                DOCK_Rotatable_Bonds:                   4
##########                       Formal_Charge:          -0.0299995
##########                     HBond_Acceptors:                   9
##########                        HBond_Donors:                   1
##########                         Heavy_Atoms:                  25
##########                          Grid_Score:          -23.803133
##########                     Grid_vdw_energy:          -24.258511
##########                      Grid_es_energy:            0.455378
##########           Internal_energy_repulsive:           19.801291

@<TRIPOS>MOLECULE
ZINC000371438955
 47 49 1 0 0
SMALL
USER_CHARGES


@<TRIPOS>ATOM
      1 C1        -10.9080    0.3466   62.5667 C.3     1  ZINC000371438955   -0.6800
      2 S2        -11.2106    0.5644   60.7914 S.o2    1  ZINC000371438955    2.6000
      3 O3        -12.2885    1.4651   60.5762 O.2     1  ZINC000371438955   -0.9500
      4 O4         -9.9831    0.7100   60.0905 O.2     1  ZINC000371438955   -0.9500
      5 N5        -11.7965   -0.9009   60.2893 N.am    1  ZINC000371438955   -0.9900
      6 C6        -10.9779   -2.0680   60.4507 C.3     1  ZINC000371438955    0.1300
      7 C7        -10.0633   -2.1799   59.2194 C.3     1  ZINC000371438955   -0.1700
      8 C8        -10.7776   -2.7264   58.0549 C.3     1  ZINC000371438955    0.1400
      9 N9        -11.9432   -1.8748   57.7191 N.am    1  ZINC000371438955   -0.6200
     10 C10       -11.8746   -1.0190   56.6801 C.2     1  ZINC000371438955    0.7100
     11 O11       -12.8305   -0.3201   56.4040 O.2     1  ZINC000371438955   -0.5800
     12 N12       -10.7465   -0.9381   55.9470 N.am    1  ZINC000371438955   -0.7400
     13 C13       -10.6720   -0.0079   54.8176 C.3     1  ZINC000371438955    0.2000
     14 H14       -11.5236    0.6705   54.8687 H       1  ZINC000371438955    0.1100
     15 C15       -10.7605   -0.8028   53.5265 C.3     1  ZINC000371438955   -0.1300
     16 C16       -10.7240    0.1690   52.3386 C.3     1  ZINC000371438955   -0.1100
     17 S17        -9.0255    0.7979   52.2064 S.3     1  ZINC000371438955   -0.1000
     18 C18        -8.6375    1.2152   53.8765 C.ar    1  ZINC000371438955   -0.1100
     19 C19        -7.5007    1.9961   54.1042 C.ar    1  ZINC000371438955    0.1100
     20 F20        -6.7521    2.4097   53.0584 F       1  ZINC000371438955   -0.1300
     21 C21        -7.1368    2.3486   55.3872 C.ar    1  ZINC000371438955   -0.1300
     22 C22        -7.9050    1.9202   56.4549 C.ar    1  ZINC000371438955   -0.1000
     23 C23        -9.0275    1.1529   56.2324 C.ar    1  ZINC000371438955   -0.1000
     24 C24        -9.4103    0.7951   54.9393 C.ar    1  ZINC000371438955   -0.0800
     25 C25       -13.1458   -1.9609   58.4995 C.3     1  ZINC000371438955    0.1000
     26 C26       -13.1578   -0.9656   59.6906 C.3     1  ZINC000371438955    0.0900
     27 H27       -11.8423    0.0892   63.0656 H       1  ZINC000371438955    0.1300
     28 H28       -10.1837   -0.4540   62.7163 H       1  ZINC000371438955    0.1300
     29 H29       -10.5162    1.2738   62.9849 H       1  ZINC000371438955    0.1300
     30 H30       -10.3724   -1.9717   61.3521 H       1  ZINC000371438955    0.0800
     31 H31       -11.6090   -2.9537   60.5229 H       1  ZINC000371438955    0.0800
     32 H32        -9.6818   -1.1901   58.9693 H       1  ZINC000371438955    0.0800
     33 H33        -9.2236   -2.8324   59.4590 H       1  ZINC000371438955    0.0900
     34 H34       -10.1006   -2.7642   57.2015 H       1  ZINC000371438955    0.0900
     35 H35       -11.1219   -3.7351   58.2836 H       1  ZINC000371438955    0.0700
     36 H36        -9.9840   -1.4956   56.1673 H       1  ZINC000371438955    0.4000
     37 H37        -9.9164   -1.4894   53.4623 H       1  ZINC000371438955    0.0900
     38 H38       -11.6933   -1.3664   53.5083 H       1  ZINC000371438955    0.1000
     39 H39       -10.9979   -0.3546   51.4227 H       1  ZINC000371438955    0.1200
     40 H40       -11.4128    0.9954   52.5144 H       1  ZINC000371438955    0.1000
     41 H41        -6.2588    2.9540   55.5568 H       1  ZINC000371438955    0.1400
     42 H42        -7.6245    2.1870   57.4631 H       1  ZINC000371438955    0.1300
     43 H43        -9.6196    0.8220   57.0729 H       1  ZINC000371438955    0.1400
     44 H44       -13.9998   -1.7509   57.8556 H       1  ZINC000371438955    0.0800
     45 H45       -13.2413   -2.9742   58.8895 H       1  ZINC000371438955    0.0900
     46 H46       -13.8746   -1.3032   60.4391 H       1  ZINC000371438955    0.0800
     47 H47       -13.4429    0.0242   59.3343 H       1  ZINC000371438955    0.1000
@<TRIPOS>BOND
     1     1     2    1
     2     1    27    1
     3     1    28    1
     4     1    29    1
     5     2     3    2
     6     2     4    2
     7     2     5   am
     8     5    26    1
     9     5     6    1
    10     6     7    1
    11     6    30    1
    12     6    31    1
    13     7     8    1
    14     7    32    1
    15     7    33    1
    16     8     9    1
    17     8    34    1
    18     8    35    1
    19     9    10   am
    20     9    25    1
    21    10    11    2
    22    10    12   am
    23    12    13    1
    24    12    36    1
    25    13    14    1
    26    13    24    1
    27    13    15    1
    28    15    16    1
    29    15    37    1
    30    15    38    1
    31    16    17    1
    32    16    39    1
    33    16    40    1
    34    17    18    1
    35    18    24   ar
    36    18    19   ar
    37    19    20    1
    38    19    21   ar
    39    21    22   ar
    40    21    41    1
    41    22    23   ar
    42    22    42    1
    43    23    24   ar
    44    23    43    1
    45    25    26    1
    46    25    44    1
    47    25    45    1
    48    26    46    1
    49    26    47    1
@<TRIPOS>SUBSTRUCTURE
     1 ZINC000371438955        1 TEMP              0 ****  ****    0 ROOT


##########                                Name:    ZINC000863208514
##########                DOCK_Rotatable_Bonds:                   6
##########                         Heavy_Atoms:                  19
##########                    Molecular_Weight:             368.657
##########                DOCK_Rotatable_Bonds:                   6
##########                       Formal_Charge:           0.0100005
##########                     HBond_Acceptors:                   7
##########                        HBond_Donors:                   2
##########                         Heavy_Atoms:                  19
##########                          Grid_Score:          -23.646418
##########                     Grid_vdw_energy:          -22.203489
##########                      Grid_es_energy:           -1.442928
##########           Internal_energy_repulsive:            7.676358

@<TRIPOS>MOLECULE
ZINC000863208514
 31 31 1 0 0
SMALL
USER_CHARGES


@<TRIPOS>ATOM
      1 C1          2.7045   -1.2056   49.5795 C.3     1  ZINC000863208514    0.0900
      2 N2          3.1126    0.0626   50.1888 N.am    1  ZINC000863208514   -0.6100
      3 C3          4.3960    0.1596   50.8883 C.3     1  ZINC000863208514    0.0700
      4 C4          2.3071    1.1401   50.1059 C.2     1  ZINC000863208514    0.5100
      5 O5          2.6455    2.1904   50.6090 O.2     1  ZINC000863208514   -0.5400
      6 C6          0.9860    1.0396   49.3879 C.3     1  ZINC000863208514    0.1100
      7 N7          0.0308    1.9732   49.9899 N.am    1  ZINC000863208514   -0.6600
      8 C8         -1.0085    2.4341   49.2661 C.2     1  ZINC000863208514    0.5600
      9 S9         -1.2115    1.9301   47.6426 S.2     1  ZINC000863208514   -0.6000
     10 N10        -1.8881    3.2918   49.8204 N.am    1  ZINC000863208514   -0.6300
     11 C11        -1.7220    3.7041   51.1486 C.ar    1  ZINC000863208514    0.1200
     12 C12        -2.4334    3.0810   52.1639 C.ar    1  ZINC000863208514   -0.0300
     13 C13        -2.2673    3.4896   53.4745 C.ar    1  ZINC000863208514   -0.0200
     14 Cl14       -3.1567    2.7099   54.7453 Cl      1  ZINC000863208514   -0.0300
     15 C15        -1.3923    4.5194   53.7745 C.ar    1  ZINC000863208514   -0.0600
     16 Br16       -1.1681    5.0751   55.5681 Br      1  ZINC000863208514   -0.0100
     17 C17        -0.6808    5.1427   52.7645 C.ar    1  ZINC000863208514   -0.1100
     18 C18        -0.8394    4.7351   51.4529 C.ar    1  ZINC000863208514    0.1100
     19 F19        -0.1448    5.3438   50.4669 F       1  ZINC000863208514   -0.1200
     20 H20         3.4776   -1.9551   49.7482 H       1  ZINC000863208514    0.0800
     21 H21         1.7696   -1.5404   50.0289 H       1  ZINC000863208514    0.0700
     22 H22         2.5625   -1.0648   48.5079 H       1  ZINC000863208514    0.0700
     23 H23         5.1722    0.4583   50.1837 H       1  ZINC000863208514    0.0700
     24 H24         4.3216    0.9020   51.6830 H       1  ZINC000863208514    0.0800
     25 H25         4.6494   -0.8092   51.3188 H       1  ZINC000863208514    0.0800
     26 H26         1.1242    1.2893   48.3359 H       1  ZINC000863208514    0.1200
     27 H27         0.6027    0.0228   49.4727 H       1  ZINC000863208514    0.1200
     28 H28         0.1465    2.2598   50.9093 H       1  ZINC000863208514    0.4100
     29 H29        -2.6361    3.6235   49.2995 H       1  ZINC000863208514    0.4200
     30 H30        -3.1166    2.2777   51.9309 H       1  ZINC000863208514    0.1800
     31 H31         0.0012    5.9460   53.0012 H       1  ZINC000863208514    0.1600
@<TRIPOS>BOND
     1     1     2    1
     2     1    20    1
     3     1    21    1
     4     1    22    1
     5     2     3    1
     6     2     4   am
     7     3    23    1
     8     3    24    1
     9     3    25    1
    10     4     5    2
    11     4     6    1
    12     6     7    1
    13     6    26    1
    14     6    27    1
    15     7     8   am
    16     7    28    1
    17     8     9    2
    18     8    10   am
    19    10    11    1
    20    10    29    1
    21    11    18   ar
    22    11    12   ar
    23    12    13   ar
    24    12    30    1
    25    13    14    1
    26    13    15   ar
    27    15    16    1
    28    15    17   ar
    29    17    18   ar
    30    17    31    1
    31    18    19    1
@<TRIPOS>SUBSTRUCTURE
     1 ZINC000863208514        1 TEMP              0 ****  ****    0 ROOT


##########                                Name:    ZINC000899027326
##########                DOCK_Rotatable_Bonds:                   5
##########                         Heavy_Atoms:                  22
##########                    Molecular_Weight:             346.169
##########                DOCK_Rotatable_Bonds:                   5
##########                       Formal_Charge:           0.0300005
##########                     HBond_Acceptors:                   9
##########                        HBond_Donors:                   1
##########                         Heavy_Atoms:                  22
##########                          Grid_Score:          -23.516096
##########                     Grid_vdw_energy:          -22.766602
##########                      Grid_es_energy:           -0.749495
##########           Internal_energy_repulsive:            5.161061

@<TRIPOS>MOLECULE
ZINC000899027326
 35 36 1 0 0
SMALL
USER_CHARGES


@<TRIPOS>ATOM
      1 C1        -10.2012   -1.6741   58.7420 C.3     1  ZINC000899027326   -0.1500
      2 C2        -10.0638   -0.3546   59.5043 C.3     1  ZINC000899027326    0.1100
      3 H3        -10.2718   -0.5019   60.5641 H       1  ZINC000899027326    0.1400
      4 C4         -8.6800    0.2325   59.3090 C.2     1  ZINC000899027326    0.5300
      5 O5         -7.6217   -0.2650   59.6287 O.2     1  ZINC000899027326   -0.4500
      6 N6         -8.8710    1.4223   58.7056 N.am    1  ZINC000899027326   -0.3700
      7 N7         -7.8373    2.2958   58.3431 N.am    1  ZINC000899027326   -0.5000
      8 C8         -7.4475    2.3812   57.0557 C.2     1  ZINC000899027326    0.5200
      9 O9         -7.9925    1.7030   56.2109 O.2     1  ZINC000899027326   -0.4800
     10 C10        -6.3344    3.3195   56.6662 C.3     1  ZINC000899027326    0.0500
     11 O11        -5.1850    2.5619   56.2830 O.3     1  ZINC000899027326   -0.2700
     12 C12        -4.6426    2.8358   55.0669 C.ar    1  ZINC000899027326    0.1400
     13 C13        -5.4633    2.9971   53.9611 C.ar    1  ZINC000899027326   -0.1900
     14 C14        -4.9102    3.2755   52.7256 C.ar    1  ZINC000899027326   -0.0600
     15 C15        -3.5385    3.3932   52.5911 C.ar    1  ZINC000899027326   -0.0600
     16 Cl16       -2.8468    3.7436   51.0378 Cl      1  ZINC000899027326   -0.0500
     17 C17        -2.7168    3.2327   53.6931 C.ar    1  ZINC000899027326   -0.0600
     18 C18        -3.2663    2.9599   54.9316 C.ar    1  ZINC000899027326   -0.0500
     19 Cl19       -2.2356    2.7586   56.3140 Cl      1  ZINC000899027326   -0.0300
     20 C20       -10.1695    1.6659   58.4947 C.2     1  ZINC000899027326    0.7000
     21 O21       -10.5900    2.6756   57.9647 O.2     1  ZINC000899027326   -0.5200
     22 N22       -10.9605    0.6673   58.9373 N.am    1  ZINC000899027326   -0.6200
     23 C23       -12.4226    0.6107   58.8638 C.3     1  ZINC000899027326    0.1200
     24 H24        -9.9777   -1.5097   57.6879 H       1  ZINC000899027326    0.0700
     25 H25        -9.5037   -2.4047   59.1517 H       1  ZINC000899027326    0.0900
     26 H26       -11.2200   -2.0479   58.8434 H       1  ZINC000899027326    0.0900
     27 H27        -7.4022    2.8391   59.0187 H       1  ZINC000899027326    0.4300
     28 H28        -6.6572    3.9385   55.8291 H       1  ZINC000899027326    0.1100
     29 H29        -6.0833    3.9571   57.5139 H       1  ZINC000899027326    0.1100
     30 H30        -6.5343    2.9050   54.0652 H       1  ZINC000899027326    0.1500
     31 H31        -5.5495    3.4007   51.8643 H       1  ZINC000899027326    0.1500
     32 H32        -1.6461    3.3251   53.5861 H       1  ZINC000899027326    0.1500
     33 H33       -12.7977    1.5162   58.3868 H       1  ZINC000899027326    0.0900
     34 H34       -12.7236   -0.2589   58.2797 H       1  ZINC000899027326    0.0700
     35 H35       -12.8343    0.5328   59.8700 H       1  ZINC000899027326    0.0700
@<TRIPOS>BOND
     1     1     2    1
     2     1    24    1
     3     1    25    1
     4     1    26    1
     5     2     3    1
     6     2    22    1
     7     2     4    1
     8     4     5    2
     9     4     6   am
    10     6     7    1
    11     6    20   am
    12     7     8   am
    13     7    27    1
    14     8     9    2
    15     8    10    1
    16    10    11    1
    17    10    28    1
    18    10    29    1
    19    11    12    1
    20    12    18   ar
    21    12    13   ar
    22    13    14   ar
    23    13    30    1
    24    14    15   ar
    25    14    31    1
    26    15    16    1
    27    15    17   ar
    28    17    18   ar
    29    17    32    1
    30    18    19    1
    31    20    21    2
    32    20    22   am
    33    22    23    1
    34    23    33    1
    35    23    34    1
    36    23    35    1
@<TRIPOS>SUBSTRUCTURE
     1 ZINC000899027326        1 TEMP              0 ****  ****    0 ROOT


##########                                Name:    ZINC000518937710
##########                DOCK_Rotatable_Bonds:                   6
##########                         Heavy_Atoms:                  25
##########                    Molecular_Weight:             397.421
##########                DOCK_Rotatable_Bonds:                   6
##########                       Formal_Charge:          -0.0199997
##########                     HBond_Acceptors:                  11
##########                        HBond_Donors:                   0
##########                         Heavy_Atoms:                  25
##########                          Grid_Score:          -23.473129
##########                     Grid_vdw_energy:          -23.884661
##########                      Grid_es_energy:            0.411531
##########           Internal_energy_repulsive:           18.310503

@<TRIPOS>MOLECULE
ZINC000518937710
 42 44 1 0 0
SMALL
USER_CHARGES


@<TRIPOS>ATOM
      1 C1        -12.0251    1.3845   57.8074 C.3     1  ZINC000518937710   -0.1900
      2 C2        -11.5823   -0.0022   57.3362 C.3     1  ZINC000518937710    0.1700
      3 H3        -12.4510   -0.5639   56.9931 H       1  ZINC000518937710    0.1100
      4 C4        -10.5833    0.1447   56.1867 C.3     1  ZINC000518937710   -0.6600
      5 S5        -11.4689    0.0864   54.6047 S.o2    1  ZINC000518937710    2.4000
      6 C6        -10.1530   -0.4036   53.4564 C.3     1  ZINC000518937710   -0.6600
      7 O7        -12.4312   -0.9577   54.6627 O.2     1  ZINC000518937710   -0.9200
      8 O8        -11.8919    1.4020   54.2738 O.2     1  ZINC000518937710   -0.9300
      9 N9        -10.9471   -0.7157   58.4470 N.am    1  ZINC000518937710   -0.9600
     10 C10        -9.9992   -0.0180   59.3193 C.3     1  ZINC000518937710    0.0800
     11 C11        -8.6621   -0.7054   59.6026 C.3     1  ZINC000518937710   -0.1800
     12 C12        -8.7146    0.5160   58.6827 C.3     1  ZINC000518937710   -0.1800
     13 S13       -11.3005   -2.3110   58.7164 S.o2    1  ZINC000518937710    2.6900
     14 O14       -11.0671   -2.9866   57.4882 O.2     1  ZINC000518937710   -0.9400
     15 O15       -10.6564   -2.6648   59.9326 O.2     1  ZINC000518937710   -0.9400
     16 C16       -13.0327   -2.4171   59.0214 C.ar    1  ZINC000518937710   -0.6400
     17 C17       -13.5310   -2.1365   60.2800 C.ar    1  ZINC000518937710   -0.0300
     18 C18       -14.8895   -2.2188   60.5230 C.ar    1  ZINC000518937710   -0.1300
     19 C19       -15.7554   -2.5814   59.5083 C.ar    1  ZINC000518937710   -0.0300
     20 C20       -15.2630   -2.8641   58.2445 C.ar    1  ZINC000518937710    0.0200
     21 C21       -13.8951   -2.7763   57.9984 C.ar    1  ZINC000518937710    0.1900
     22 O22       -13.6651   -3.0998   56.6923 O.3     1  ZINC000518937710   -0.2800
     23 C23       -14.8541   -3.7809   56.2499 C.3     1  ZINC000518937710    0.5700
     24 F24       -15.1144   -3.4927   54.9060 F       1  ZINC000518937710   -0.1200
     25 F25       -14.7294   -5.1613   56.4400 F       1  ZINC000518937710   -0.1400
     26 O26       -15.8906   -3.2383   57.0915 O.3     1  ZINC000518937710   -0.2900
     27 H27       -11.1619    1.9329   58.1845 H       1  ZINC000518937710    0.1000
     28 H28       -12.4647    1.9289   56.9717 H       1  ZINC000518937710    0.0800
     29 H29       -12.7641    1.2794   58.6017 H       1  ZINC000518937710    0.0700
     30 H30       -10.0633    1.0984   56.2769 H       1  ZINC000518937710    0.1600
     31 H31        -9.8595   -0.6692   56.2281 H       1  ZINC000518937710    0.1400
     32 H32        -9.8100   -1.4081   53.7041 H       1  ZINC000518937710    0.1300
     33 H33       -10.5379   -0.3923   52.4366 H       1  ZINC000518937710    0.1300
     34 H34        -9.3205    0.2952   53.5383 H       1  ZINC000518937710    0.1300
     35 H35       -10.4441    0.5687   60.1231 H       1  ZINC000518937710    0.1500
     36 H36        -8.2270   -0.5712   60.5930 H       1  ZINC000518937710    0.1100
     37 H37        -8.4876   -1.6768   59.1399 H       1  ZINC000518937710    0.1000
     38 H38        -8.5746    0.3482   57.6148 H       1  ZINC000518937710    0.1000
     39 H39        -8.3140    1.4538   59.0679 H       1  ZINC000518937710    0.1000
     40 H40       -12.8576   -1.8528   61.0752 H       1  ZINC000518937710    0.1600
     41 H41       -15.2750   -1.9995   61.5076 H       1  ZINC000518937710    0.1600
     42 H42       -16.8162   -2.6448   59.7010 H       1  ZINC000518937710    0.1500
@<TRIPOS>BOND
     1     1     2    1
     2     1    27    1
     3     1    28    1
     4     1    29    1
     5     2     3    1
     6     2     4    1
     7     2     9    1
     8     4     5    1
     9     4    30    1
    10     4    31    1
    11     5     6    1
    12     5     7    2
    13     5     8    2
    14     6    32    1
    15     6    33    1
    16     6    34    1
    17     9    10    1
    18     9    13   am
    19    10    12    1
    20    10    11    1
    21    10    35    1
    22    11    12    1
    23    11    36    1
    24    11    37    1
    25    12    38    1
    26    12    39    1
    27    13    14    2
    28    13    15    2
    29    13    16    1
    30    16    21   ar
    31    16    17   ar
    32    17    18   ar
    33    17    40    1
    34    18    19   ar
    35    18    41    1
    36    19    20   ar
    37    19    42    1
    38    20    26    1
    39    20    21   ar
    40    21    22    1
    41    22    23    1
    42    23    24    1
    43    23    25    1
    44    23    26    1
@<TRIPOS>SUBSTRUCTURE
     1 ZINC000518937710        1 TEMP              0 ****  ****    0 ROOT


##########                                Name:    ZINC000482962466
##########                DOCK_Rotatable_Bonds:                   2
##########                         Heavy_Atoms:                  25
##########                    Molecular_Weight:             404.303
##########                DOCK_Rotatable_Bonds:                   2
##########                       Formal_Charge:           0.0200002
##########                     HBond_Acceptors:                   4
##########                        HBond_Donors:                   0
##########                         Heavy_Atoms:                  25
##########                          Grid_Score:          -23.469288
##########                     Grid_vdw_energy:          -23.629087
##########                      Grid_es_energy:            0.159799
##########           Internal_energy_repulsive:           18.479429

@<TRIPOS>MOLECULE
ZINC000482962466
 47 50 1 0 0
SMALL
USER_CHARGES


@<TRIPOS>ATOM
      1 C1          4.0692    0.9400   45.4314 C.3     1  ZINC000482962466   -0.1400
      2 C2          3.1954    1.1384   46.6716 C.3     1  ZINC000482962466    0.0700
      3 H3          2.4570    0.3387   46.7284 H       1  ZINC000482962466    0.0700
      4 C4          2.4797    2.4911   46.5829 C.3     1  ZINC000482962466    0.0800
      5 N5          1.7978    2.7413   47.8625 N.am    1  ZINC000482962466   -0.6100
      6 C6          0.4974    3.0938   47.8986 C.2     1  ZINC000482962466    0.5600
      7 O7         -0.1299    3.2096   46.8638 O.2     1  ZINC000482962466   -0.5200
      8 C8         -0.1656    3.3398   49.1959 C.ar    1  ZINC000482962466   -0.1100
      9 C9          0.4620    4.1517   50.1574 C.ar    1  ZINC000482962466   -0.0700
     10 C10        -0.1270    4.3926   51.3564 C.ar    1  ZINC000482962466   -0.1000
     11 C11        -1.3814    3.8275   51.6507 C.ar    1  ZINC000482962466   -0.0400
     12 C12        -2.0102    4.0626   52.8844 C.ar    1  ZINC000482962466   -0.0700
     13 C13        -3.2251    3.5020   53.1407 C.ar    1  ZINC000482962466   -0.0800
     14 Br14       -4.0667    3.8230   54.8034 Br      1  ZINC000482962466   -0.0400
     15 C15        -3.8577    2.6953   52.1951 C.ar    1  ZINC000482962466   -0.1000
     16 C16        -3.2789    2.4450   50.9895 C.ar    1  ZINC000482962466   -0.0900
     17 C17        -2.0248    3.0072   50.6890 C.ar    1  ZINC000482962466   -0.0500
     18 C18        -1.4034    2.7737   49.4536 C.ar    1  ZINC000482962466   -0.0700
     19 C19         2.5780    2.5954   49.1019 C.3     1  ZINC000482962466    0.0700
     20 C20         3.2907    1.2398   49.0670 C.3     1  ZINC000482962466    0.0800
     21 C21         4.2592    1.1419   50.2484 C.3     1  ZINC000482962466   -0.1100
     22 C22         4.9064   -0.2467   50.2499 C.3     1  ZINC000482962466   -0.1500
     23 C23         3.8087   -1.3124   50.3052 C.3     1  ZINC000482962466    0.0600
     24 O24         2.9264   -1.1451   49.1936 O.3     1  ZINC000482962466   -0.3700
     25 C25         2.2561    0.1169   49.1660 C.3     1  ZINC000482962466    0.0400
     26 O26         4.0158    1.1149   47.8424 O.3     1  ZINC000482962466   -0.3500
     27 H27         4.5792   -0.0210   45.4961 H       1  ZINC000482962466    0.0700
     28 H28         3.4433    0.9600   44.5391 H       1  ZINC000482962466    0.0800
     29 H29         4.8074    1.7400   45.3752 H       1  ZINC000482962466    0.0700
     30 H30         3.2080    3.2800   46.3948 H       1  ZINC000482962466    0.0800
     31 H31         1.7477    2.4667   45.7755 H       1  ZINC000482962466    0.1000
     32 H32         1.4252    4.5889   49.9392 H       1  ZINC000482962466    0.1400
     33 H33         0.3677    5.0180   52.0849 H       1  ZINC000482962466    0.1400
     34 H34        -1.5326    4.6848   53.6268 H       1  ZINC000482962466    0.1400
     35 H35        -4.8208    2.2629   52.4232 H       1  ZINC000482962466    0.1400
     36 H36        -3.7797    1.8179   50.2669 H       1  ZINC000482962466    0.1400
     37 H37        -1.8841    2.1541   48.7109 H       1  ZINC000482962466    0.1400
     38 H38         3.3148    3.3960   49.1683 H       1  ZINC000482962466    0.0900
     39 H39         1.9108    2.6374   49.9629 H       1  ZINC000482962466    0.1000
     40 H40         5.0320    1.9043   50.1505 H       1  ZINC000482962466    0.0800
     41 H41         3.7138    1.2910   51.1802 H       1  ZINC000482962466    0.0800
     42 H42         5.4939   -0.3757   49.3409 H       1  ZINC000482962466    0.0800
     43 H43         5.5544   -0.3457   51.1207 H       1  ZINC000482962466    0.0800
     44 H44         4.2615   -2.3030   50.2638 H       1  ZINC000482962466    0.1000
     45 H45         3.2473   -1.2080   51.2336 H       1  ZINC000482962466    0.0500
     46 H46         1.6732    0.2391   50.0788 H       1  ZINC000482962466    0.0600
     47 H47         1.5923    0.1571   48.3023 H       1  ZINC000482962466    0.1000
@<TRIPOS>BOND
     1     1     2    1
     2     1    27    1
     3     1    28    1
     4     1    29    1
     5     2     3    1
     6     2    26    1
     7     2     4    1
     8     4     5    1
     9     4    30    1
    10     4    31    1
    11     5     6   am
    12     5    19    1
    13     6     7    2
    14     6     8    1
    15     8    18   ar
    16     8     9   ar
    17     9    10   ar
    18     9    32    1
    19    10    11   ar
    20    10    33    1
    21    11    17   ar
    22    11    12   ar
    23    12    13   ar
    24    12    34    1
    25    13    14    1
    26    13    15   ar
    27    15    16   ar
    28    15    35    1
    29    16    17   ar
    30    16    36    1
    31    17    18   ar
    32    18    37    1
    33    19    20    1
    34    19    38    1
    35    19    39    1
    36    20    25    1
    37    20    21    1
    38    20    26    1
    39    21    22    1
    40    21    40    1
    41    21    41    1
    42    22    23    1
    43    22    42    1
    44    22    43    1
    45    23    24    1
    46    23    44    1
    47    23    45    1
    48    24    25    1
    49    25    46    1
    50    25    47    1
@<TRIPOS>SUBSTRUCTURE
     1 ZINC000482962466        1 TEMP              0 ****  ****    0 ROOT


##########                                Name:    ZINC000618094467
##########                DOCK_Rotatable_Bonds:                   5
##########                         Heavy_Atoms:                  27
##########                    Molecular_Weight:             370.492
##########                DOCK_Rotatable_Bonds:                   5
##########                       Formal_Charge:                0.03
##########                     HBond_Acceptors:                   5
##########                        HBond_Donors:                   0
##########                         Heavy_Atoms:                  27
##########                          Grid_Score:          -23.333876
##########                     Grid_vdw_energy:          -21.955297
##########                      Grid_es_energy:           -1.378578
##########           Internal_energy_repulsive:          106.717468

@<TRIPOS>MOLECULE
ZINC000618094467
 57 59 1 0 0
SMALL
USER_CHARGES


@<TRIPOS>ATOM
      1 C1         -9.0754    2.0195   60.4036 C.3     1  ZINC000618094467   -0.1500
      2 C2        -10.0928    1.3413   59.4839 C.3     1  ZINC000618094467   -0.1000
      3 C3         -9.5130    0.0237   58.9655 C.3     1  ZINC000618094467   -0.1100
      4 H4         -8.5500    0.2123   58.4909 H       1  ZINC000618094467    0.1000
      5 C5         -9.3242   -0.9453   60.1345 C.3     1  ZINC000618094467   -0.1500
      6 C6        -10.4589   -0.5804   57.9601 C.2     1  ZINC000618094467    0.5200
      7 O7        -11.0879   -1.5782   58.2425 O.2     1  ZINC000618094467   -0.5000
      8 N8        -10.6063   -0.0119   56.7470 N.am    1  ZINC000618094467   -0.6100
      9 C9         -9.8605    1.1951   56.3748 C.3     1  ZINC000618094467    0.1400
     10 C10        -9.3095    1.0414   54.9795 C.ar    1  ZINC000618094467   -0.1000
     11 C11        -8.3762    1.9727   54.5456 C.ar    1  ZINC000618094467   -0.1100
     12 C12        -7.8433    1.8908   53.2753 C.ar    1  ZINC000618094467   -0.1200
     13 C13        -8.2432    0.8741   52.4286 C.ar    1  ZINC000618094467   -0.1100
     14 C14        -9.1677   -0.0544   52.8602 C.ar    1  ZINC000618094467   -0.1200
     15 C15        -9.7014    0.0220   54.1407 C.ar    1  ZINC000618094467   -0.0600
     16 C16       -10.6845   -1.0421   54.5520 C.3     1  ZINC000618094467   -0.0800
     17 C17       -11.5175   -0.5809   55.7403 C.3     1  ZINC000618094467    0.1200
     18 H18       -12.2273    0.1815   55.4194 H       1  ZINC000618094467    0.1000
     19 C19       -12.2599   -1.7533   56.3281 C.2     1  ZINC000618094467    0.5500
     20 O20       -11.7314   -2.8439   56.3751 O.2     1  ZINC000618094467   -0.5200
     21 N21       -13.5112   -1.5898   56.8013 N.am    1  ZINC000618094467   -0.6100
     22 C22       -14.2403   -2.7251   57.3812 C.3     1  ZINC000618094467    0.1200
     23 C23       -14.6421   -2.3714   58.8188 C.3     1  ZINC000618094467   -0.1600
     24 H24       -15.3432   -3.1152   59.1974 H       1  ZINC000618094467    0.1100
     25 C25       -13.3974   -2.3374   59.7080 C.3     1  ZINC000618094467   -0.1400
     26 C26       -15.3001   -1.0091   58.8099 C.2     1  ZINC000618094467    0.3700
     27 O27       -16.3884   -0.8447   59.3067 O.2     1  ZINC000618094467   -0.4400
     28 C28       -14.5612    0.1424   58.1641 C.3     1  ZINC000618094467   -0.1600
     29 H29       -13.6677    0.3761   58.7430 H       1  ZINC000618094467    0.1100
     30 C30       -15.4720    1.3703   58.1045 C.3     1  ZINC000618094467   -0.1400
     31 C31       -14.1592   -0.2730   56.7484 C.3     1  ZINC000618094467    0.1400
     32 H32        -8.1595    2.2194   59.8473 H       1  ZINC000618094467    0.0500
     33 H33        -9.4885    2.9581   60.7728 H       1  ZINC000618094467    0.0600
     34 H34        -8.8533    1.3640   61.2457 H       1  ZINC000618094467    0.0600
     35 H35       -11.0086    1.1413   60.0401 H       1  ZINC000618094467    0.0700
     36 H36       -10.3148    1.9967   58.6418 H       1  ZINC000618094467    0.0700
     37 H37       -10.2567   -1.0270   60.6929 H       1  ZINC000618094467    0.0700
     38 H38        -9.0429   -1.9262   59.7514 H       1  ZINC000618094467    0.0700
     39 H39        -8.5384   -0.5730   60.7918 H       1  ZINC000618094467    0.0700
     40 H40       -10.5261    2.0577   56.4089 H       1  ZINC000618094467    0.0900
     41 H41        -9.0386    1.3441   57.0751 H       1  ZINC000618094467    0.1100
     42 H42        -8.0651    2.7679   55.2070 H       1  ZINC000618094467    0.1300
     43 H43        -7.1170    2.6182   52.9440 H       1  ZINC000618094467    0.1300
     44 H44        -7.8333    0.8070   51.4317 H       1  ZINC000618094467    0.1200
     45 H45        -9.4795   -0.8475   52.1968 H       1  ZINC000618094467    0.1200
     46 H46       -11.3451   -1.2632   53.7136 H       1  ZINC000618094467    0.0900
     47 H47       -10.1405   -1.9458   54.8268 H       1  ZINC000618094467    0.1000
     48 H48       -15.1342   -2.9254   56.7907 H       1  ZINC000618094467    0.0700
     49 H49       -13.5989   -3.6065   57.3874 H       1  ZINC000618094467    0.0900
     50 H50       -12.7416   -1.5291   59.3843 H       1  ZINC000618094467    0.0600
     51 H51       -13.6950   -2.1712   60.7433 H       1  ZINC000618094467    0.0600
     52 H52       -12.8690   -3.2875   59.6299 H       1  ZINC000618094467    0.0700
     53 H53       -15.7683    1.6522   59.1149 H       1  ZINC000618094467    0.0700
     54 H54       -14.9366    2.1976   57.6387 H       1  ZINC000618094467    0.0700
     55 H55       -16.3601    1.1359   57.5176 H       1  ZINC000618094467    0.0600
     56 H56       -13.4660    0.4600   56.3356 H       1  ZINC000618094467    0.1100
     57 H57       -15.0472   -0.3339   56.1194 H       1  ZINC000618094467    0.0700
@<TRIPOS>BOND
     1     1     2    1
     2     1    32    1
     3     1    33    1
     4     1    34    1
     5     2     3    1
     6     2    35    1
     7     2    36    1
     8     3     4    1
     9     3     5    1
    10     3     6    1
    11     5    37    1
    12     5    38    1
    13     5    39    1
    14     6     7    2
    15     6     8   am
    16     8    17    1
    17     8     9    1
    18     9    10    1
    19     9    40    1
    20     9    41    1
    21    10    15   ar
    22    10    11   ar
    23    11    12   ar
    24    11    42    1
    25    12    13   ar
    26    12    43    1
    27    13    14   ar
    28    13    44    1
    29    14    15   ar
    30    14    45    1
    31    15    16    1
    32    16    17    1
    33    16    46    1
    34    16    47    1
    35    17    18    1
    36    17    19    1
    37    19    20    2
    38    19    21   am
    39    21    31    1
    40    21    22    1
    41    22    23    1
    42    22    48    1
    43    22    49    1
    44    23    24    1
    45    23    25    1
    46    23    26    1
    47    25    50    1
    48    25    51    1
    49    25    52    1
    50    26    27    2
    51    26    28    1
    52    28    29    1
    53    28    30    1
    54    28    31    1
    55    30    53    1
    56    30    54    1
    57    30    55    1
    58    31    56    1
    59    31    57    1
@<TRIPOS>SUBSTRUCTURE
     1 ZINC000618094467        1 TEMP              0 ****  ****    0 ROOT


##########                                Name:    ZINC000560467340
##########                DOCK_Rotatable_Bonds:                   7
##########                         Heavy_Atoms:                  24
##########                    Molecular_Weight:             369.481
##########                DOCK_Rotatable_Bonds:                   7
##########                       Formal_Charge:          -0.0199997
##########                     HBond_Acceptors:                   7
##########                        HBond_Donors:                   2
##########                         Heavy_Atoms:                  24
##########                          Grid_Score:          -23.313780
##########                     Grid_vdw_energy:          -21.900896
##########                      Grid_es_energy:           -1.412883
##########           Internal_energy_repulsive:           19.020033

@<TRIPOS>MOLECULE
ZINC000560467340
 44 46 1 0 0
SMALL
USER_CHARGES


@<TRIPOS>ATOM
      1 O1        -14.9834   -1.8674   62.6845 O.2     1  ZINC000560467340   -0.9600
      2 S2        -15.2866   -0.8952   61.6934 S.o2    1  ZINC000560467340    2.7100
      3 O3        -16.1994    0.1729   61.9058 O.2     1  ZINC000560467340   -0.9500
      4 N4        -13.8459   -0.2007   61.2636 N.am    1  ZINC000560467340   -1.0900
      5 C5        -12.7257   -1.0424   60.8360 C.3     1  ZINC000560467340    0.1400
      6 C6        -11.9244   -0.3145   59.7548 C.3     1  ZINC000560467340   -0.0500
      7 C7        -11.3295    0.9754   60.3231 C.3     1  ZINC000560467340   -0.0700
      8 C8        -10.7934    0.7142   61.7072 C.ar    1  ZINC000560467340   -0.0900
      9 C9        -11.5341    1.0807   62.8153 C.ar    1  ZINC000560467340   -0.0900
     10 C10       -11.0435    0.8416   64.0850 C.ar    1  ZINC000560467340   -0.1500
     11 C11        -9.8096    0.2345   64.2468 C.ar    1  ZINC000560467340    0.1000
     12 F12        -9.3293   -0.0001   65.4875 F       1  ZINC000560467340   -0.1400
     13 C13        -9.0689   -0.1325   63.1362 C.ar    1  ZINC000560467340   -0.1500
     14 C14        -9.5637    0.1032   61.8675 C.ar    1  ZINC000560467340   -0.0900
     15 C15       -12.8328    0.0071   58.5502 C.3     1  ZINC000560467340   -0.1300
     16 C16       -11.9156   -0.1940   57.3184 C.3     1  ZINC000560467340   -0.1200
     17 C17       -11.0669   -1.4254   57.7215 C.3     1  ZINC000560467340   -0.1600
     18 C18       -10.8017   -1.2254   59.2280 C.3     1  ZINC000560467340    0.1100
     19 H19        -9.8331   -0.7479   59.3762 H       1  ZINC000560467340    0.0600
     20 O20       -10.8346   -2.4848   59.9023 O.3     1  ZINC000560467340   -0.5500
     21 C21       -15.8769   -1.7826   60.2903 C.2     1  ZINC000560467340   -0.6900
     22 C22       -16.7891   -1.2814   59.4561 C.2     1  ZINC000560467340   -0.1000
     23 S23       -17.1281   -2.4468   58.1832 S.3     1  ZINC000560467340    0.1500
     24 C24       -15.9778   -3.5829   58.8759 C.2     1  ZINC000560467340   -0.2200
     25 C25       -15.4249   -3.0503   59.9668 C.2     1  ZINC000560467340   -0.0700
     26 H26       -13.7438    0.7633   61.2949 H       1  ZINC000560467340    0.4200
     27 H27       -12.0801   -1.2492   61.6895 H       1  ZINC000560467340    0.0600
     28 H28       -13.1088   -1.9807   60.4346 H       1  ZINC000560467340    0.0800
     29 H29       -10.5198    1.3170   59.6783 H       1  ZINC000560467340    0.0800
     30 H30       -12.1032    1.7416   60.3719 H       1  ZINC000560467340    0.0800
     31 H31       -12.4965    1.5542   62.6888 H       1  ZINC000560467340    0.1300
     32 H32       -11.6220    1.1286   64.9506 H       1  ZINC000560467340    0.1400
     33 H33        -8.1062   -0.6059   63.2612 H       1  ZINC000560467340    0.1400
     34 H34        -8.9861   -0.1833   61.0009 H       1  ZINC000560467340    0.1300
     35 H35       -13.6766   -0.6821   58.5140 H       1  ZINC000560467340    0.0700
     36 H36       -13.1830    1.0380   58.6009 H       1  ZINC000560467340    0.0800
     37 H37       -12.5063   -0.4068   56.4275 H       1  ZINC000560467340    0.0700
     38 H38       -11.2808    0.6783   57.1629 H       1  ZINC000560467340    0.0700
     39 H39       -11.6255   -2.3458   57.5515 H       1  ZINC000560467340    0.0800
     40 H40       -10.1283   -1.4398   57.1674 H       1  ZINC000560467340    0.0700
     41 H41       -10.6335   -2.4307   60.8466 H       1  ZINC000560467340    0.3800
     42 H42       -17.2495   -0.3088   59.5484 H       1  ZINC000560467340    0.1800
     43 H43       -15.7505   -4.5601   58.4765 H       1  ZINC000560467340    0.1700
     44 H44       -14.6863   -3.5720   60.5574 H       1  ZINC000560467340    0.1500
@<TRIPOS>BOND
     1     1     2    2
     2     2     3    2
     3     2     4   am
     4     2    21    1
     5     4     5    1
     6     4    26    1
     7     5     6    1
     8     5    27    1
     9     5    28    1
    10     6    18    1
    11     6     7    1
    12     6    15    1
    13     7     8    1
    14     7    29    1
    15     7    30    1
    16     8    14   ar
    17     8     9   ar
    18     9    10   ar
    19     9    31    1
    20    10    11   ar
    21    10    32    1
    22    11    12    1
    23    11    13   ar
    24    13    14   ar
    25    13    33    1
    26    14    34    1
    27    15    16    1
    28    15    35    1
    29    15    36    1
    30    16    17    1
    31    16    37    1
    32    16    38    1
    33    17    18    1
    34    17    39    1
    35    17    40    1
    36    18    19    1
    37    18    20    1
    38    20    41    1
    39    21    25    1
    40    21    22    2
    41    22    23    1
    42    22    42    1
    43    23    24    1
    44    24    25    2
    45    24    43    1
    46    25    44    1
@<TRIPOS>SUBSTRUCTURE
     1 ZINC000560467340        1 TEMP              0 ****  ****    0 ROOT


##########                                Name:    ZINC001018118384
##########                DOCK_Rotatable_Bonds:                   5
##########                         Heavy_Atoms:                  25
##########                    Molecular_Weight:             347.374
##########                DOCK_Rotatable_Bonds:                   5
##########                       Formal_Charge:           0.0299997
##########                     HBond_Acceptors:                   9
##########                        HBond_Donors:                   2
##########                         Heavy_Atoms:                  25
##########                          Grid_Score:          -23.305367
##########                     Grid_vdw_energy:          -20.892006
##########                      Grid_es_energy:           -2.413360
##########           Internal_energy_repulsive:           97.977745

@<TRIPOS>MOLECULE
ZINC001018118384
 46 48 1 0 0
SMALL
USER_CHARGES


@<TRIPOS>ATOM
      1 C1         -8.7289    1.0752   62.3852 C.3     1  ZINC001018118384   -0.0700
      2 C2         -8.9198    0.0056   61.3409 C.2     1  ZINC001018118384    0.2200
      3 N3         -9.9586   -0.1178   60.5663 N.2     1  ZINC001018118384   -0.4600
      4 C4         -9.7775   -1.1925   59.7568 C.2     1  ZINC001018118384   -0.0700
      5 C5        -10.7175   -1.6792   58.7322 C.2     1  ZINC001018118384    0.6100
      6 O6        -10.4562   -1.5411   57.5524 O.2     1  ZINC001018118384   -0.5400
      7 N7        -11.8672   -2.2774   59.1022 N.am    1  ZINC001018118384   -0.5900
      8 C8        -12.1997   -2.4461   60.5234 C.3     1  ZINC001018118384    0.0700
      9 C9        -13.5888   -1.8530   60.7785 C.3     1  ZINC001018118384    0.1300
     10 H10       -13.8881   -2.0567   61.8067 H       1  ZINC001018118384    0.1100
     11 N11       -13.5503   -0.4051   60.5582 N.am    1  ZINC001018118384   -0.7000
     12 C12       -14.3633    0.4058   61.2638 C.2     1  ZINC001018118384    0.6000
     13 O13       -15.1293   -0.0640   62.0816 O.2     1  ZINC001018118384   -0.4900
     14 C14       -14.3231    1.8706   61.0422 C.2     1  ZINC001018118384    0.0300
     15 C15       -15.0791    2.8066   61.6831 C.2     1  ZINC001018118384   -0.2300
     16 C16       -14.6586    4.0400   61.1107 C.2     1  ZINC001018118384    0.4800
     17 O17       -15.0680    5.1562   61.3836 O.2     1  ZINC001018118384   -0.5200
     18 N18       -13.7132    3.7185   60.2048 N.am    1  ZINC001018118384   -0.4500
     19 C19       -12.9974    4.6872   59.3708 C.3     1  ZINC001018118384    0.1100
     20 O20       -13.5316    2.5233   60.1775 O.3     1  ZINC001018118384    0.0000
     21 C21       -14.5954   -2.4899   59.8177 C.3     1  ZINC001018118384   -0.1300
     22 C22       -14.1940   -2.1768   58.3745 C.3     1  ZINC001018118384   -0.1300
     23 C23       -12.8146   -2.7681   58.0921 C.3     1  ZINC001018118384    0.1400
     24 H24       -12.8654   -3.8557   58.1449 H       1  ZINC001018118384    0.0700
     25 C25       -12.3503   -2.3436   56.6974 C.3     1  ZINC001018118384   -0.1400
     26 C26        -8.5662   -1.7395   60.0648 C.2     1  ZINC001018118384    0.0400
     27 N27        -8.0327   -0.9819   61.0519 N.pl3   1  ZINC001018118384   -0.5600
     28 H28        -8.2376    1.9382   61.9358 H       1  ZINC001018118384    0.0900
     29 H29        -9.6997    1.3747   62.7802 H       1  ZINC001018118384    0.1000
     30 H30        -8.1114    0.6864   63.1948 H       1  ZINC001018118384    0.0800
     31 H31       -12.2034   -3.5067   60.7745 H       1  ZINC001018118384    0.0800
     32 H32       -11.4624   -1.9263   61.1353 H       1  ZINC001018118384    0.1500
     33 H33       -12.9397   -0.0301   59.9045 H       1  ZINC001018118384    0.4100
     34 H34       -15.8249    2.6485   62.4480 H       1  ZINC001018118384    0.1900
     35 H35       -12.0960    5.0159   59.8880 H       1  ZINC001018118384    0.0800
     36 H36       -12.7237    4.2200   58.4248 H       1  ZINC001018118384    0.0900
     37 H37       -13.6401    5.5464   59.1790 H       1  ZINC001018118384    0.1100
     38 H38       -14.6054   -3.5698   59.9657 H       1  ZINC001018118384    0.0900
     39 H39       -15.5892   -2.0876   60.0138 H       1  ZINC001018118384    0.0800
     40 H40       -14.9242   -2.6109   57.6914 H       1  ZINC001018118384    0.0800
     41 H41       -14.1599   -1.0966   58.2326 H       1  ZINC001018118384    0.0600
     42 H42       -12.3144   -1.2556   56.6420 H       1  ZINC001018118384    0.0700
     43 H43       -11.3572   -2.7501   56.5057 H       1  ZINC001018118384    0.0800
     44 H44       -13.0483   -2.7226   55.9510 H       1  ZINC001018118384    0.0400
     45 H45        -8.1169   -2.6076   59.6058 H       1  ZINC001018118384    0.1900
     46 H46        -7.1741   -1.1230   61.4805 H       1  ZINC001018118384    0.4300
@<TRIPOS>BOND
     1     1     2    1
     2     1    28    1
     3     1    29    1
     4     1    30    1
     5     2    27    1
     6     2     3    2
     7     3     4    1
     8     4     5    1
     9     4    26    2
    10     5     6    2
    11     5     7   am
    12     7    23    1
    13     7     8    1
    14     8     9    1
    15     8    31    1
    16     8    32    1
    17     9    10    1
    18     9    11    1
    19     9    21    1
    20    11    12   am
    21    11    33    1
    22    12    13    2
    23    12    14    1
    24    14    20    1
    25    14    15    2
    26    15    16    1
    27    15    34    1
    28    16    17    2
    29    16    18   am
    30    18    19    1
    31    18    20    1
    32    19    35    1
    33    19    36    1
    34    19    37    1
    35    21    22    1
    36    21    38    1
    37    21    39    1
    38    22    23    1
    39    22    40    1
    40    22    41    1
    41    23    24    1
    42    23    25    1
    43    25    42    1
    44    25    43    1
    45    25    44    1
    46    26    27    1
    47    26    45    1
    48    27    46    1
@<TRIPOS>SUBSTRUCTURE
     1 ZINC001018118384        1 TEMP              0 ****  ****    0 ROOT


##########                                Name:    ZINC001002468398
##########                DOCK_Rotatable_Bonds:                   7
##########                         Heavy_Atoms:                  24
##########                    Molecular_Weight:             341.358
##########                DOCK_Rotatable_Bonds:                   7
##########                       Formal_Charge:           0.0100001
##########                     HBond_Acceptors:                   8
##########                        HBond_Donors:                   0
##########                         Heavy_Atoms:                  24
##########                          Grid_Score:          -23.298645
##########                     Grid_vdw_energy:          -23.060326
##########                      Grid_es_energy:           -0.238320
##########           Internal_energy_repulsive:           30.187670

@<TRIPOS>MOLECULE
ZINC001002468398
 45 47 1 0 0
SMALL
USER_CHARGES


@<TRIPOS>ATOM
      1 C1        -10.3068    2.7684   56.5264 C.3     1  ZINC001002468398   -0.1400
      2 C2         -9.1257    1.8339   56.7958 C.3     1  ZINC001002468398   -0.0500
      3 C3         -9.0396    1.5460   58.2725 C.2     1  ZINC001002468398    0.0500
      4 C4         -9.7358    0.5961   58.9544 C.2     1  ZINC001002468398   -0.0800
      5 C5        -10.7174   -0.3464   58.3874 C.2     1  ZINC001002468398    0.6000
      6 O6        -11.2087   -0.1292   57.2963 O.2     1  ZINC001002468398   -0.5300
      7 N7        -11.0702   -1.4486   59.0780 N.am    1  ZINC001002468398   -0.6000
      8 C8        -10.4783   -1.7101   60.3924 C.3     1  ZINC001002468398    0.0900
      9 C9        -12.0456   -2.3851   58.5145 C.3     1  ZINC001002468398    0.1000
     10 C10       -13.4558   -1.8166   58.6850 C.3     1  ZINC001002468398    0.1300
     11 H11       -13.5120   -0.8243   58.2375 H       1  ZINC001002468398    0.0800
     12 C12       -13.8120   -1.7371   60.1845 C.3     1  ZINC001002468398   -0.1300
     13 C13       -15.3097   -2.1416   60.2079 C.3     1  ZINC001002468398   -0.1300
     14 C14       -15.3617   -3.2070   59.0846 C.3     1  ZINC001002468398    0.1000
     15 N15       -14.4352   -2.7087   58.0472 N.am    1  ZINC001002468398   -0.6100
     16 C16       -14.4806   -3.0222   56.7373 C.2     1  ZINC001002468398    0.5600
     17 O17       -13.6650   -2.5522   55.9725 O.2     1  ZINC001002468398   -0.5100
     18 C18       -15.5449   -3.9570   56.2227 C.3     1  ZINC001002468398   -0.2000
     19 H19       -16.5699   -3.5977   56.3135 H       1  ZINC001002468398    0.1500
     20 C20       -15.3055   -5.4591   56.3872 C.3     1  ZINC001002468398   -0.1500
     21 C21       -15.2023   -4.8144   55.0027 C.3     1  ZINC001002468398    0.2300
     22 F22       -16.2288   -5.0778   54.0893 F       1  ZINC001002468398   -0.1500
     23 F23       -13.9249   -4.6711   54.4505 F       1  ZINC001002468398   -0.1400
     24 N24        -9.3549    0.6795   60.2581 N.2     1  ZINC001002468398   -0.4600
     25 C25        -8.4740    1.6281   60.3698 C.2     1  ZINC001002468398    0.1700
     26 O26        -8.2572    2.1738   59.1648 O.3     1  ZINC001002468398   -0.2000
     27 H27       -11.2296    2.2926   56.8581 H       1  ZINC001002468398    0.0600
     28 H28       -10.1632    3.7017   57.0708 H       1  ZINC001002468398    0.0600
     29 H29       -10.3690    2.9766   55.4583 H       1  ZINC001002468398    0.0700
     30 H30        -9.2692    0.9007   56.2513 H       1  ZINC001002468398    0.1200
     31 H31        -8.2028    2.3098   56.4641 H       1  ZINC001002468398    0.0900
     32 H32       -10.7643   -0.9175   61.0839 H       1  ZINC001002468398    0.0700
     33 H33       -10.8380   -2.6678   60.7688 H       1  ZINC001002468398    0.0700
     34 H34        -9.3925   -1.7397   60.3025 H       1  ZINC001002468398    0.0700
     35 H35       -11.8386   -2.5313   57.4543 H       1  ZINC001002468398    0.0900
     36 H36       -11.9739   -3.3407   59.0339 H       1  ZINC001002468398    0.0900
     37 H37       -13.2131   -2.4421   60.7610 H       1  ZINC001002468398    0.1000
     38 H38       -13.6808   -0.7218   60.5587 H       1  ZINC001002468398    0.0800
     39 H39       -15.5824   -2.5748   61.1702 H       1  ZINC001002468398    0.0900
     40 H40       -15.9480   -1.2908   59.9693 H       1  ZINC001002468398    0.0800
     41 H41       -15.0264   -4.1730   59.4620 H       1  ZINC001002468398    0.0800
     42 H42       -16.3719   -3.2856   58.6828 H       1  ZINC001002468398    0.0800
     43 H43       -14.3783   -5.7714   56.8677 H       1  ZINC001002468398    0.1300
     44 H44       -16.1732   -6.0883   56.5858 H       1  ZINC001002468398    0.1400
     45 H45        -7.9897    1.9267   61.2878 H       1  ZINC001002468398    0.2600
@<TRIPOS>BOND
     1     1     2    1
     2     1    27    1
     3     1    28    1
     4     1    29    1
     5     2     3    1
     6     2    30    1
     7     2    31    1
     8     3    26    1
     9     3     4    2
    10     4     5    1
    11     4    24    1
    12     5     6    2
    13     5     7   am
    14     7     8    1
    15     7     9    1
    16     8    32    1
    17     8    33    1
    18     8    34    1
    19     9    10    1
    20     9    35    1
    21     9    36    1
    22    10    11    1
    23    10    15    1
    24    10    12    1
    25    12    13    1
    26    12    37    1
    27    12    38    1
    28    13    14    1
    29    13    39    1
    30    13    40    1
    31    14    15    1
    32    14    41    1
    33    14    42    1
    34    15    16   am
    35    16    17    2
    36    16    18    1
    37    18    19    1
    38    18    21    1
    39    18    20    1
    40    20    21    1
    41    20    43    1
    42    20    44    1
    43    21    22    1
    44    21    23    1
    45    24    25    2
    46    25    26    1
    47    25    45    1
@<TRIPOS>SUBSTRUCTURE
     1 ZINC001002468398        1 TEMP              0 ****  ****    0 ROOT


##########                                Name:    ZINC000493443319
##########                DOCK_Rotatable_Bonds:                   6
##########                         Heavy_Atoms:                  25
##########                    Molecular_Weight:             348.399
##########                DOCK_Rotatable_Bonds:                   6
##########                       Formal_Charge:        -3.27826e-07
##########                     HBond_Acceptors:                   7
##########                        HBond_Donors:                   0
##########                         Heavy_Atoms:                  25
##########                          Grid_Score:          -23.230015
##########                     Grid_vdw_energy:          -23.978491
##########                      Grid_es_energy:            0.748477
##########           Internal_energy_repulsive:           50.088627

@<TRIPOS>MOLECULE
ZINC000493443319
 49 51 1 0 0
SMALL
USER_CHARGES


@<TRIPOS>ATOM
      1 C1         -8.7125    0.1086   52.9737 C.3     1  <0>        -0.1500
      2 C2         -9.9010    0.2685   52.0234 C.3     1  <0>         0.0500
      3 O3        -11.0518    0.6780   52.7648 O.3     1  <0>        -0.3200
      4 C4        -11.2477    0.0902   53.9753 C.ar    1  <0>         0.1000
      5 C5        -11.6962   -1.2205   54.0454 C.ar    1  <0>        -0.1700
      6 C6        -11.8953   -1.8176   55.2749 C.ar    1  <0>        -0.1100
      7 C7        -11.6461   -1.1067   56.4395 C.ar    1  <0>         0.0800
      8 O8        -11.8424   -1.6944   57.6500 O.3     1  <0>        -0.3000
      9 C9        -13.0842   -1.4302   58.3058 C.3     1  <0>         0.1000
     10 C10       -14.1047   -0.9279   57.2823 C.3     1  <0>        -0.1800
     11 C11       -13.6023   -2.7155   58.9541 C.3     1  <0>        -0.1500
     12 C12       -12.8784   -0.3799   59.3669 C.2     1  <0>         0.5100
     13 O13       -13.5932    0.5994   59.3975 O.2     1  <0>        -0.5200
     14 N14       -11.9001   -0.5291   60.2817 N.am    1  <0>        -0.6000
     15 C15       -11.0332   -1.7136   60.2473 C.3     1  <0>         0.0700
     16 C16        -9.5676   -1.2602   60.1516 C.3     1  <0>         0.1300
     17 N17        -9.3749   -0.1865   61.1362 N.am    1  <0>        -0.6300
     18 C18        -8.4549   -0.1006   62.0984 C.2     1  <0>         0.6500
     19 O19        -7.5122   -0.8622   62.1873 O.2     1  <0>        -0.5200
     20 O20        -8.6692    0.9050   62.9575 O.3     1  <0>        -0.3200
     21 C21        -9.8249    1.6798   62.5204 C.3     1  <0>         0.0500
     22 C22       -10.2530    1.0013   61.2091 C.3     1  <0>         0.0800
     23 H23       -10.1104    1.6598   60.3522 H       1  <0>         0.1100
     24 C24       -11.6927    0.4973   61.3148 C.3     1  <0>         0.1000
     25 C25       -11.1962    0.2034   56.3695 C.ar    1  <0>        -0.1800
     26 C26       -10.9936    0.7993   55.1398 C.ar    1  <0>        -0.1100
     27 H27        -7.8346   -0.2038   52.4082 H       1  <0>         0.0800
     28 H28        -8.5089    1.0605   53.4642 H       1  <0>         0.0700
     29 H29        -8.9473   -0.6448   53.7255 H       1  <0>         0.0700
     30 H30        -9.6661    1.0218   51.2715 H       1  <0>         0.0600
     31 H31       -10.1044   -0.6834   51.5329 H       1  <0>         0.0600
     32 H32       -11.8903   -1.7739   53.1384 H       1  <0>         0.1400
     33 H33       -12.2452   -2.8379   55.3295 H       1  <0>         0.1400
     34 H34       -14.3522   -1.7333   56.5909 H       1  <0>         0.0800
     35 H35       -15.0075   -0.6024   57.7991 H       1  <0>         0.0900
     36 H36       -13.6813   -0.0903   56.7279 H       1  <0>         0.0800
     37 H37       -12.8383   -3.1215   59.6170 H       1  <0>         0.0800
     38 H38       -14.5022   -2.4956   59.5285 H       1  <0>         0.0900
     39 H39       -13.8356   -3.4451   58.1786 H       1  <0>         0.0900
     40 H40       -11.1759   -2.2963   61.1572 H       1  <0>         0.0800
     41 H41       -11.2836   -2.3234   59.3792 H       1  <0>         0.1300
     42 H42        -8.9056   -2.0956   60.3800 H       1  <0>         0.1100
     43 H43        -9.3602   -0.8854   59.1493 H       1  <0>         0.0800
     44 H44       -10.6245    1.6229   63.2589 H       1  <0>         0.1100
     45 H45        -9.5433    2.7173   62.3398 H       1  <0>         0.1100
     46 H46       -12.3848    1.3243   61.1562 H       1  <0>         0.1100
     47 H47       -11.8588    0.0612   62.3000 H       1  <0>         0.0800
     48 H48       -11.0018    0.7569   57.2763 H       1  <0>         0.1600
     49 H49       -10.6432    1.8194   55.0854 H       1  <0>         0.1300
@<TRIPOS>BOND
     1     1     2    1
     2     1    27    1
     3     1    28    1
     4     1    29    1
     5     2     3    1
     6     2    30    1
     7     2    31    1
     8     3     4    1
     9     4    26   ar
    10     4     5   ar
    11     5     6   ar
    12     5    32    1
    13     6     7   ar
    14     6    33    1
    15     7     8    1
    16     7    25   ar
    17     8     9    1
    18     9    10    1
    19     9    11    1
    20     9    12    1
    21    10    34    1
    22    10    35    1
    23    10    36    1
    24    11    37    1
    25    11    38    1
    26    11    39    1
    27    12    13    2
    28    12    14   am
    29    14    24    1
    30    14    15    1
    31    15    16    1
    32    15    40    1
    33    15    41    1
    34    16    17    1
    35    16    42    1
    36    16    43    1
    37    17    22    1
    38    17    18   am
    39    18    19    2
    40    18    20    1
    41    20    21    1
    42    21    22    1
    43    21    44    1
    44    21    45    1
    45    22    23    1
    46    22    24    1
    47    24    46    1
    48    24    47    1
    49    25    26   ar
    50    25    48    1
    51    26    49    1
@<TRIPOS>SUBSTRUCTURE
     1 <0>         1 TEMP              0 ****  ****    0 ROOT


##########                                Name:    ZINC000931749147
##########                DOCK_Rotatable_Bonds:                   5
##########                         Heavy_Atoms:                  25
##########                    Molecular_Weight:             354.397
##########                DOCK_Rotatable_Bonds:                   5
##########                       Formal_Charge:        -4.76837e-07
##########                     HBond_Acceptors:                   7
##########                        HBond_Donors:                   1
##########                         Heavy_Atoms:                  25
##########                          Grid_Score:          -23.199692
##########                     Grid_vdw_energy:          -22.943977
##########                      Grid_es_energy:           -0.255713
##########           Internal_energy_repulsive:          149.303940

@<TRIPOS>MOLECULE
ZINC000931749147
 49 51 1 0 0
SMALL
USER_CHARGES


@<TRIPOS>ATOM
      1 C1         -9.4438    4.0199   52.4270 C.3     1  ZINC000931749147   -0.1100
      2 C2         -9.4977    2.5184   52.5438 C.ar    1  ZINC000931749147   -0.1300
      3 C3         -8.3482    1.7648   52.3500 C.ar    1  ZINC000931749147    0.1800
      4 N4         -7.1372    2.3991   52.0460 N.am    1  ZINC000931749147   -0.6800
      5 C5         -6.3137    2.7905   53.0386 C.2     1  ZINC000931749147    0.7100
      6 O6         -6.6222    2.5928   54.1980 O.2     1  ZINC000931749147   -0.5500
      7 N7         -5.1483    3.4009   52.7460 N.am    1  ZINC000931749147   -0.6200
      8 C8         -4.7534    3.6509   51.3507 C.3     1  ZINC000931749147    0.0700
      9 C9         -3.3255    3.1299   51.1515 C.3     1  ZINC000931749147    0.0500
     10 O10        -2.4774    3.6838   52.1603 O.3     1  ZINC000931749147   -0.3700
     11 C11        -2.8308    3.3075   53.4935 C.3     1  ZINC000931749147    0.0500
     12 C12        -4.2359    3.8427   53.8128 C.3     1  ZINC000931749147    0.1300
     13 H13        -4.2129    4.9315   53.8561 H       1  ZINC000931749147    0.0900
     14 C14        -4.7073    3.2833   55.1566 C.3     1  ZINC000931749147   -0.1100
     15 C15        -3.7429    3.7249   56.2593 C.3     1  ZINC000931749147   -0.1000
     16 C16        -2.5914    2.7202   56.3655 C.3     1  ZINC000931749147   -0.1500
     17 C17        -1.5916    3.2109   57.4158 C.3     1  ZINC000931749147    0.0600
     18 O18        -1.1231    4.5118   57.0544 O.3     1  ZINC000931749147   -0.3800
     19 C19        -2.1498    5.5035   56.9859 C.3     1  ZINC000931749147    0.0600
     20 C20        -3.1721    5.1048   55.9184 C.3     1  ZINC000931749147   -0.1500
     21 C21        -8.4004    0.3815   52.4582 C.ar    1  ZINC000931749147   -0.1200
     22 C22        -9.5951   -0.2433   52.7584 C.ar    1  ZINC000931749147   -0.1100
     23 C23       -10.7414    0.5081   52.9518 C.ar    1  ZINC000931749147    0.0500
     24 F24       -11.9088   -0.1051   53.2455 F       1  ZINC000931749147   -0.1300
     25 C25       -10.6914    1.8902   52.8501 C.ar    1  ZINC000931749147    0.0900
     26 F26       -11.8110    2.6223   53.0391 F       1  ZINC000931749147   -0.1200
     27 H27        -9.2109    4.4520   53.4001 H       1  ZINC000931749147    0.0800
     28 H28        -8.6721    4.3011   51.7104 H       1  ZINC000931749147    0.0700
     29 H29       -10.4096    4.3927   52.0856 H       1  ZINC000931749147    0.0800
     30 H30        -6.8910    2.5569   51.1211 H       1  ZINC000931749147    0.4100
     31 H31        -5.4324    3.1273   50.6777 H       1  ZINC000931749147    0.0800
     32 H32        -4.7856    4.7210   51.1462 H       1  ZINC000931749147    0.0900
     33 H33        -3.3207    2.0426   51.2285 H       1  ZINC000931749147    0.0600
     34 H34        -2.9633    3.4276   50.1675 H       1  ZINC000931749147    0.1100
     35 H35        -2.8241    2.2209   53.5790 H       1  ZINC000931749147    0.0600
     36 H36        -2.1126    3.7330   54.1944 H       1  ZINC000931749147    0.1100
     37 H37        -5.7067    3.6589   55.3760 H       1  ZINC000931749147    0.1100
     38 H38        -4.7307    2.1946   55.1089 H       1  ZINC000931749147    0.0700
     39 H39        -4.2740    3.7746   57.2098 H       1  ZINC000931749147    0.0700
     40 H40        -2.9832    1.7473   56.6621 H       1  ZINC000931749147    0.0700
     41 H41        -2.0928    2.6342   55.4000 H       1  ZINC000931749147    0.0700
     42 H42        -2.0804    3.2581   58.3890 H       1  ZINC000931749147    0.0500
     43 H43        -0.7486    2.5218   57.4652 H       1  ZINC000931749147    0.0900
     44 H44        -2.6458    5.5805   57.9535 H       1  ZINC000931749147    0.0500
     45 H45        -1.7089    6.4658   56.7257 H       1  ZINC000931749147    0.0900
     46 H46        -2.6851    5.0670   54.9439 H       1  ZINC000931749147    0.0700
     47 H47        -3.9790    5.8372   55.8952 H       1  ZINC000931749147    0.0700
     48 H48        -7.5067   -0.2060   52.3072 H       1  ZINC000931749147    0.1800
     49 H49        -9.6350   -1.3194   52.8422 H       1  ZINC000931749147    0.1500
@<TRIPOS>BOND
     1     1     2    1
     2     1    27    1
     3     1    28    1
     4     1    29    1
     5     2    25   ar
     6     2     3   ar
     7     3     4    1
     8     3    21   ar
     9     4     5   am
    10     4    30    1
    11     5     6    2
    12     5     7   am
    13     7    12    1
    14     7     8    1
    15     8     9    1
    16     8    31    1
    17     8    32    1
    18     9    10    1
    19     9    33    1
    20     9    34    1
    21    10    11    1
    22    11    12    1
    23    11    35    1
    24    11    36    1
    25    12    13    1
    26    12    14    1
    27    14    15    1
    28    14    37    1
    29    14    38    1
    30    15    20    1
    31    15    16    1
    32    15    39    1
    33    16    17    1
    34    16    40    1
    35    16    41    1
    36    17    18    1
    37    17    42    1
    38    17    43    1
    39    18    19    1
    40    19    20    1
    41    19    44    1
    42    19    45    1
    43    20    46    1
    44    20    47    1
    45    21    22   ar
    46    21    48    1
    47    22    23   ar
    48    22    49    1
    49    23    24    1
    50    23    25   ar
    51    25    26    1
@<TRIPOS>SUBSTRUCTURE
     1 ZINC000931749147        1 TEMP              0 ****  ****    0 ROOT


##########                                Name:    ZINC000647468483
##########                DOCK_Rotatable_Bonds:                   5
##########                         Heavy_Atoms:                  24
##########                    Molecular_Weight:             341.373
##########                DOCK_Rotatable_Bonds:                   5
##########                       Formal_Charge:           0.0300004
##########                     HBond_Acceptors:                   6
##########                        HBond_Donors:                   2
##########                         Heavy_Atoms:                  24
##########                          Grid_Score:          -23.198174
##########                     Grid_vdw_energy:          -18.695202
##########                      Grid_es_energy:           -4.502971
##########           Internal_energy_repulsive:           21.761011

@<TRIPOS>MOLECULE
ZINC000647468483
 46 48 1 0 0
SMALL
USER_CHARGES


@<TRIPOS>ATOM
      1 O1         -9.1805   -0.4668   64.4686 O.co2   1  ZINC000647468483   -0.6800
      2 C2         -9.2940    0.6709   64.8919 C.2     1  ZINC000647468483    0.5000
      3 O3         -8.9331    0.9386   66.0253 O.co2   1  ZINC000647468483   -0.6900
      4 C4         -9.8746    1.7478   64.0119 C.3     1  ZINC000647468483   -0.1500
      5 H5        -10.3387    2.5285   64.6145 H       1  ZINC000647468483    0.0800
      6 C6        -10.8933    1.1487   63.0107 C.3     1  ZINC000647468483   -0.1100
      7 C7        -10.9220    2.1623   61.8481 C.3     1  ZINC000647468483   -0.1400
      8 C8         -9.5835    2.9201   61.8925 C.3     1  ZINC000647468483    0.0100
      9 H9         -9.7619    3.9844   62.0462 H       1  ZINC000647468483    0.1400
     10 N10        -8.8444    2.7099   60.6405 N.4     1  ZINC000647468483   -0.5000
     11 H11        -7.9217    3.1097   60.7234 H       1  ZINC000647468483    0.4200
     12 H12        -8.7672    1.7206   60.4576 H       1  ZINC000647468483    0.4300
     13 C13        -9.5613    3.3579   59.5341 C.3     1  ZINC000647468483    0.0200
     14 H14       -10.5912    3.5631   59.8261 H       1  ZINC000647468483    0.1500
     15 C15        -8.8537    4.6669   59.1424 C.3     1  ZINC000647468483   -0.1400
     16 C16        -8.4225    4.5113   57.6695 C.3     1  ZINC000647468483   -0.1300
     17 C17        -8.3360    2.9791   57.4589 C.3     1  ZINC000647468483   -0.1300
     18 C18        -9.5364    2.4517   58.2858 C.3     1  ZINC000647468483   -0.0600
     19 H19       -10.4631    2.5540   57.7209 H       1  ZINC000647468483    0.1300
     20 C20        -9.3154    1.0136   58.6782 C.ar    1  ZINC000647468483   -0.1200
     21 C21        -8.0945    0.6167   59.1901 C.ar    1  ZINC000647468483   -0.0700
     22 C22        -7.8917   -0.7027   59.5500 C.ar    1  ZINC000647468483   -0.1000
     23 C23        -8.9102   -1.6247   59.3983 C.ar    1  ZINC000647468483   -0.0600
     24 C24       -10.1317   -1.2275   58.8869 C.ar    1  ZINC000647468483   -0.1600
     25 C25       -11.2420   -2.2330   58.7211 C.3     1  ZINC000647468483    0.5000
     26 F26       -12.3293   -1.6261   58.0835 F       1  ZINC000647468483   -0.1700
     27 F27       -10.7874   -3.3063   57.9474 F       1  ZINC000647468483   -0.1700
     28 F28       -11.6399   -2.6999   59.9784 F       1  ZINC000647468483   -0.1700
     29 C29       -10.3358    0.0924   58.5311 C.ar    1  ZINC000647468483   -0.1100
     30 C30        -8.7871    2.3441   63.0841 C.3     1  ZINC000647468483   -0.1200
     31 H31       -10.5545    0.1742   62.6590 H       1  ZINC000647468483    0.0800
     32 H32       -11.8781    1.0681   63.4709 H       1  ZINC000647468483    0.0800
     33 H33       -11.0228    1.6378   60.8979 H       1  ZINC000647468483    0.0700
     34 H34       -11.7500    2.8588   61.9803 H       1  ZINC000647468483    0.1000
     35 H35        -9.5404    5.5073   59.2436 H       1  ZINC000647468483    0.1000
     36 H36        -7.9783    4.8215   59.7734 H       1  ZINC000647468483    0.0900
     37 H37        -9.1694    4.9460   57.0052 H       1  ZINC000647468483    0.0800
     38 H38        -7.4494    4.9743   57.5058 H       1  ZINC000647468483    0.0900
     39 H39        -8.4525    2.7269   56.4050 H       1  ZINC000647468483    0.0900
     40 H40        -7.3963    2.5880   57.8492 H       1  ZINC000647468483    0.0800
     41 H41        -7.2987    1.3373   59.3087 H       1  ZINC000647468483    0.1400
     42 H42        -6.9375   -1.0129   59.9494 H       1  ZINC000647468483    0.1500
     43 H43        -8.7515   -2.6555   59.6786 H       1  ZINC000647468483    0.1500
     44 H44       -11.2900    0.4026   58.1317 H       1  ZINC000647468483    0.1400
     45 H45        -8.2365    3.1352   63.5931 H       1  ZINC000647468483    0.0900
     46 H46        -8.1076    1.5616   62.7463 H       1  ZINC000647468483    0.1000
@<TRIPOS>BOND
     1     1     2   ar
     2     2     3   ar
     3     2     4    1
     4     4     5    1
     5     4    30    1
     6     4     6    1
     7     6     7    1
     8     6    31    1
     9     6    32    1
    10     7     8    1
    11     7    33    1
    12     7    34    1
    13     8     9    1
    14     8    10    1
    15     8    30    1
    16    10    11    1
    17    10    12    1
    18    10    13    1
    19    13    14    1
    20    13    18    1
    21    13    15    1
    22    15    16    1
    23    15    35    1
    24    15    36    1
    25    16    17    1
    26    16    37    1
    27    16    38    1
    28    17    18    1
    29    17    39    1
    30    17    40    1
    31    18    19    1
    32    18    20    1
    33    20    29   ar
    34    20    21   ar
    35    21    22   ar
    36    21    41    1
    37    22    23   ar
    38    22    42    1
    39    23    24   ar
    40    23    43    1
    41    24    25    1
    42    24    29   ar
    43    25    26    1
    44    25    27    1
    45    25    28    1
    46    29    44    1
    47    30    45    1
    48    30    46    1
@<TRIPOS>SUBSTRUCTURE
     1 ZINC000647468483        1 TEMP              0 ****  ****    0 ROOT


##########                                Name:    ZINC000345028113
##########                DOCK_Rotatable_Bonds:                   5
##########                         Heavy_Atoms:                  21
##########                    Molecular_Weight:             331.838
##########                DOCK_Rotatable_Bonds:                   5
##########                       Formal_Charge:         4.47035e-07
##########                     HBond_Acceptors:                   6
##########                        HBond_Donors:                   0
##########                         Heavy_Atoms:                  21
##########                          Grid_Score:          -23.189054
##########                     Grid_vdw_energy:          -22.193575
##########                      Grid_es_energy:           -0.995479
##########           Internal_energy_repulsive:           17.394432

@<TRIPOS>MOLECULE
ZINC000345028113
 40 41 1 0 0
SMALL
USER_CHARGES


@<TRIPOS>ATOM
      1 C1         -9.0046    3.7558   53.7123 C.3     1  ZINC000345028113   -0.1700
      2 C2         -9.0667    3.2887   52.2566 C.3     1  ZINC000345028113    0.1400
      3 H3         -9.2069    4.1505   51.6043 H       1  ZINC000345028113    0.1100
      4 C4        -10.2401    2.3189   52.0812 C.3     1  ZINC000345028113   -0.0700
      5 H5        -10.3094    2.0144   51.0369 H       1  ZINC000345028113    0.0900
      6 C6        -11.5407    3.0060   52.5024 C.3     1  ZINC000345028113   -0.1400
      7 S7         -9.9536    0.8582   53.1239 S.3     1  ZINC000345028113   -0.2400
      8 C8         -8.3087    0.3100   52.5791 C.3     1  ZINC000345028113   -0.1100
      9 C9         -7.3308    1.4831   52.7043 C.3     1  ZINC000345028113    0.1000
     10 N10        -7.8169    2.6111   51.9080 N.am    1  ZINC000345028113   -0.6100
     11 C11        -7.1062    3.0303   50.8423 C.2     1  ZINC000345028113    0.5200
     12 O12        -7.5039    3.9633   50.1773 O.2     1  ZINC000345028113   -0.5300
     13 C13        -5.8175    2.3397   50.4772 C.3     1  ZINC000345028113   -0.1400
     14 C14        -4.6977    2.8300   51.3973 C.3     1  ZINC000345028113    0.0700
     15 O15        -3.4656    2.2128   51.0188 O.3     1  ZINC000345028113   -0.3000
     16 C16        -2.3214    2.7865   51.4775 C.ar    1  ZINC000345028113    0.1300
     17 C17        -2.2812    3.3328   52.7511 C.ar    1  ZINC000345028113   -0.1700
     18 C18        -1.1174    3.9152   53.2163 C.ar    1  ZINC000345028113   -0.1100
     19 C19         0.0082    3.9536   52.4116 C.ar    1  ZINC000345028113    0.0800
     20 F20         1.1451    4.5230   52.8684 F       1  ZINC000345028113   -0.1300
     21 C21        -0.0296    3.4086   51.1391 C.ar    1  ZINC000345028113   -0.1100
     22 C22        -1.1904    2.8207   50.6730 C.ar    1  ZINC000345028113   -0.0400
     23 Cl23       -1.2380    2.1373   49.0779 Cl      1  ZINC000345028113   -0.0400
     24 H24        -8.1699    4.4457   53.8372 H       1  ZINC000345028113    0.0600
     25 H25        -9.9351    4.2604   53.9719 H       1  ZINC000345028113    0.0800
     26 H26        -8.8643    2.8940   54.3648 H       1  ZINC000345028113    0.0800
     27 H27       -11.7033    3.8875   51.8822 H       1  ZINC000345028113    0.0800
     28 H28       -12.3740    2.3147   52.3768 H       1  ZINC000345028113    0.0700
     29 H29       -11.4712    3.3053   53.5482 H       1  ZINC000345028113    0.0700
     30 H30        -7.9719   -0.5148   53.2071 H       1  ZINC000345028113    0.1200
     31 H31        -8.3576   -0.0156   51.5400 H       1  ZINC000345028113    0.0900
     32 H32        -7.2544    1.7826   53.7495 H       1  ZINC000345028113    0.0900
     33 H33        -6.3493    1.1783   52.3410 H       1  ZINC000345028113    0.1000
     34 H34        -5.9371    1.2624   50.5927 H       1  ZINC000345028113    0.1100
     35 H35        -5.5635    2.5681   49.4421 H       1  ZINC000345028113    0.1100
     36 H36        -4.6036    3.9124   51.3102 H       1  ZINC000345028113    0.0800
     37 H37        -4.9337    2.5676   52.4286 H       1  ZINC000345028113    0.0800
     38 H38        -3.1591    3.3036   53.3793 H       1  ZINC000345028113    0.1500
     39 H39        -1.0863    4.3411   54.2083 H       1  ZINC000345028113    0.1500
     40 H40         0.8494    3.4395   50.5123 H       1  ZINC000345028113    0.1500
@<TRIPOS>BOND
     1     1     2    1
     2     1    24    1
     3     1    25    1
     4     1    26    1
     5     2     3    1
     6     2    10    1
     7     2     4    1
     8     4     5    1
     9     4     6    1
    10     4     7    1
    11     6    27    1
    12     6    28    1
    13     6    29    1
    14     7     8    1
    15     8     9    1
    16     8    30    1
    17     8    31    1
    18     9    10    1
    19     9    32    1
    20     9    33    1
    21    10    11   am
    22    11    12    2
    23    11    13    1
    24    13    14    1
    25    13    34    1
    26    13    35    1
    27    14    15    1
    28    14    36    1
    29    14    37    1
    30    15    16    1
    31    16    22   ar
    32    16    17   ar
    33    17    18   ar
    34    17    38    1
    35    18    19   ar
    36    18    39    1
    37    19    20    1
    38    19    21   ar
    39    21    22   ar
    40    21    40    1
    41    22    23    1
@<TRIPOS>SUBSTRUCTURE
     1 ZINC000345028113        1 TEMP              0 ****  ****    0 ROOT


##########                                Name:    ZINC000187810810
##########                DOCK_Rotatable_Bonds:                   7
##########                         Heavy_Atoms:                  27
##########                    Molecular_Weight:             386.414
##########                DOCK_Rotatable_Bonds:                   7
##########                       Formal_Charge:           0.0599998
##########                     HBond_Acceptors:                   8
##########                        HBond_Donors:                   1
##########                         Heavy_Atoms:                  27
##########                          Grid_Score:          -23.057281
##########                     Grid_vdw_energy:          -22.480871
##########                      Grid_es_energy:           -0.576409
##########           Internal_energy_repulsive:           48.936577

@<TRIPOS>MOLECULE
ZINC000187810810
 52 53 1 0 0
SMALL
USER_CHARGES


@<TRIPOS>ATOM
      1 C1        -12.9046   -2.4747   58.4817 C.3     1  ZINC000187810810   -0.1800
      2 C2        -12.5127   -1.3508   57.5202 C.3     1  ZINC000187810810    0.1400
      3 C3        -13.5750   -1.2215   56.4268 C.3     1  ZINC000187810810   -0.1800
      4 C4        -12.4108   -0.0330   58.2907 C.3     1  ZINC000187810810   -0.1400
      5 O5        -11.2294   -1.6578   56.9143 O.3     1  ZINC000187810810   -0.3600
      6 C6        -11.2051   -1.8070   55.5765 C.2     1  ZINC000187810810    0.6500
      7 O7        -11.6038   -2.8385   55.0729 O.2     1  ZINC000187810810   -0.5600
      8 N8        -10.7385   -0.8124   54.7958 N.am    1  ZINC000187810810   -0.6000
      9 C9        -10.2456    0.4375   55.3906 C.3     1  ZINC000187810810    0.1100
     10 C10       -10.9783    1.6154   54.7405 C.3     1  ZINC000187810810   -0.1400
     11 C11       -10.8163    1.5357   53.2208 C.3     1  ZINC000187810810    0.1800
     12 C12       -11.5177    2.7297   52.5701 C.3     1  ZINC000187810810   -0.1600
     13 N13        -9.3918    1.5614   52.8798 N.am    1  ZINC000187810810   -0.7100
     14 C14        -8.6391    2.6298   53.2094 C.2     1  ZINC000187810810    0.5500
     15 O15        -9.1427    3.5727   53.7881 O.2     1  ZINC000187810810   -0.5100
     16 C16        -7.2011    2.6550   52.8669 C.ar    1  ZINC000187810810   -0.0900
     17 C17        -6.7919    2.4676   51.5458 C.ar    1  ZINC000187810810   -0.0900
     18 C18        -5.4483    2.4926   51.2329 C.ar    1  ZINC000187810810   -0.0900
     19 C19        -4.5076    2.7025   52.2253 C.ar    1  ZINC000187810810   -0.0900
     20 C20        -4.9067    2.8885   53.5372 C.ar    1  ZINC000187810810   -0.0800
     21 C21        -6.2470    2.8719   53.8626 C.ar    1  ZINC000187810810   -0.1300
     22 C22        -6.6799    3.0751   55.2917 C.3     1  ZINC000187810810    0.5200
     23 F23        -7.6012    2.0834   55.6453 F       1  ZINC000187810810   -0.1800
     24 F24        -5.5644    2.9965   56.1325 F       1  ZINC000187810810   -0.1600
     25 F25        -7.2758    4.3338   55.4241 F       1  ZINC000187810810   -0.1600
     26 C26       -11.4399    0.2360   52.7070 C.3     1  ZINC000187810810   -0.1500
     27 C27       -10.7072   -0.9597   53.3343 C.3     1  ZINC000187810810    0.1300
     28 H28       -12.9773   -3.4136   57.9328 H       1  ZINC000187810810    0.0900
     29 H29       -12.1478   -2.5668   59.2606 H       1  ZINC000187810810    0.0600
     30 H30       -13.8680   -2.2442   58.9365 H       1  ZINC000187810810    0.0700
     31 H31       -14.5384   -0.9911   56.8816 H       1  ZINC000187810810    0.0700
     32 H32       -13.2959   -0.4208   55.7419 H       1  ZINC000187810810    0.0600
     33 H33       -13.6477   -2.1604   55.8779 H       1  ZINC000187810810    0.0900
     34 H34       -11.6539   -0.1251   59.0697 H       1  ZINC000187810810    0.0700
     35 H35       -12.1316    0.7676   57.6058 H       1  ZINC000187810810    0.0700
     36 H36       -13.3741    0.1974   58.7456 H       1  ZINC000187810810    0.0800
     37 H37       -10.4399    0.4333   56.4631 H       1  ZINC000187810810    0.1000
     38 H38        -9.1743    0.5298   55.2115 H       1  ZINC000187810810    0.0700
     39 H39       -12.0369    1.5712   54.9964 H       1  ZINC000187810810    0.0900
     40 H40       -10.5548    2.5520   55.1029 H       1  ZINC000187810810    0.0900
     41 H41       -11.0729    3.6555   52.9351 H       1  ZINC000187810810    0.0600
     42 H42       -11.4025    2.6732   51.4877 H       1  ZINC000187810810    0.0800
     43 H43       -12.5776    2.7110   52.8241 H       1  ZINC000187810810    0.0700
     44 H44        -8.9902    0.8094   52.4170 H       1  ZINC000187810810    0.4000
     45 H45        -7.5253    2.3030   50.7703 H       1  ZINC000187810810    0.1400
     46 H46        -5.1303    2.3478   50.2110 H       1  ZINC000187810810    0.1400
     47 H47        -3.4572    2.7208   51.9751 H       1  ZINC000187810810    0.1400
     48 H48        -4.1672    3.0515   54.3073 H       1  ZINC000187810810    0.1500
     49 H49       -12.4942    0.2048   52.9820 H       1  ZINC000187810810    0.0800
     50 H50       -11.3449    0.1909   51.6221 H       1  ZINC000187810810    0.1000
     51 H51        -9.6746   -0.9793   52.9856 H       1  ZINC000187810810    0.0700
     52 H52       -11.2085   -1.8851   53.0508 H       1  ZINC000187810810    0.1000
@<TRIPOS>BOND
     1     1     2    1
     2     1    28    1
     3     1    29    1
     4     1    30    1
     5     2     3    1
     6     2     4    1
     7     2     5    1
     8     3    31    1
     9     3    32    1
    10     3    33    1
    11     4    34    1
    12     4    35    1
    13     4    36    1
    14     5     6    1
    15     6     7    2
    16     6     8   am
    17     8    27    1
    18     8     9    1
    19     9    10    1
    20     9    37    1
    21     9    38    1
    22    10    11    1
    23    10    39    1
    24    10    40    1
    25    11    12    1
    26    11    13    1
    27    11    26    1
    28    12    41    1
    29    12    42    1
    30    12    43    1
    31    13    14   am
    32    13    44    1
    33    14    15    2
    34    14    16    1
    35    16    21   ar
    36    16    17   ar
    37    17    18   ar
    38    17    45    1
    39    18    19   ar
    40    18    46    1
    41    19    20   ar
    42    19    47    1
    43    20    21   ar
    44    20    48    1
    45    21    22    1
    46    22    23    1
    47    22    24    1
    48    22    25    1
    49    26    27    1
    50    26    49    1
    51    26    50    1
    52    27    51    1
    53    27    52    1
@<TRIPOS>SUBSTRUCTURE
     1 ZINC000187810810        1 TEMP              0 ****  ****    0 ROOT


##########                                Name:    ZINC000002634904
##########                DOCK_Rotatable_Bonds:                   7
##########                         Heavy_Atoms:                  31
##########                    Molecular_Weight:             423.498
##########                DOCK_Rotatable_Bonds:                   7
##########                       Formal_Charge:        -7.45058e-08
##########                     HBond_Acceptors:                   7
##########                        HBond_Donors:                   1
##########                         Heavy_Atoms:                  31
##########                          Grid_Score:          -23.037086
##########                     Grid_vdw_energy:          -23.053020
##########                      Grid_es_energy:            0.015935
##########           Internal_energy_repulsive:           12.544405

@<TRIPOS>MOLECULE
ZINC000002634904
 48 51 1 0 0
SMALL
USER_CHARGES


@<TRIPOS>ATOM
      1 N1        -15.9308   -4.3275   55.3917 N.1     1  ZINC000002634904   -0.4100
      2 C2        -15.3074   -3.5029   55.8627 C.1     1  ZINC000002634904    0.2500
      3 C3        -14.5216   -2.4634   56.4563 C.ar    1  ZINC000002634904   -0.0400
      4 C4        -14.3480   -1.2480   55.7883 C.ar    1  ZINC000002634904   -0.0500
      5 C5        -13.5916   -0.2507   56.3621 C.ar    1  ZINC000002634904   -0.1400
      6 C6        -13.0006   -0.4517   57.6052 C.ar    1  ZINC000002634904    0.1700
      7 N7        -12.2348    0.5613   58.1837 N.am    1  ZINC000002634904   -0.6700
      8 C8        -11.0348    0.2732   58.7253 C.2     1  ZINC000002634904    0.5400
      9 O9        -10.6205   -0.8665   58.7101 O.2     1  ZINC000002634904   -0.5000
     10 C10       -10.2079    1.3673   59.3501 C.3     1  ZINC000002634904   -0.1700
     11 S11        -8.4529    1.0459   59.0451 S.3     1  ZINC000002634904    0.1300
     12 C12        -8.2956    1.7190   57.4244 C.ar    1  ZINC000002634904    0.2100
     13 N13        -7.4507    2.7217   57.2122 N.ar    1  ZINC000002634904   -0.2900
     14 N14        -7.3031    3.2444   56.0455 N.ar    1  ZINC000002634904   -0.1600
     15 C15        -8.0007    2.7889   55.0104 C.ar    1  ZINC000002634904    0.0600
     16 C16        -7.8318    3.3891   53.6663 C.ar    1  ZINC000002634904   -0.0500
     17 C17        -8.1364    4.7337   53.4569 C.ar    1  ZINC000002634904   -0.0800
     18 C18        -7.9770    5.2871   52.2029 C.ar    1  ZINC000002634904   -0.1200
     19 C19        -7.5166    4.5106   51.1546 C.ar    1  ZINC000002634904   -0.1000
     20 C20        -7.2130    3.1762   51.3563 C.ar    1  ZINC000002634904   -0.1200
     21 C21        -7.3623    2.6131   52.6072 C.ar    1  ZINC000002634904   -0.0800
     22 C22        -8.9036    1.7255   55.2112 C.ar    1  ZINC000002634904    0.2300
     23 C23        -9.7017    1.1867   54.0853 C.ar    1  ZINC000002634904   -0.0700
     24 C24        -9.1903    0.1591   53.2933 C.ar    1  ZINC000002634904   -0.0700
     25 C25        -9.9385   -0.3390   52.2464 C.ar    1  ZINC000002634904   -0.1200
     26 C26       -11.1937    0.1790   51.9817 C.ar    1  ZINC000002634904   -0.0900
     27 C27       -11.7063    1.1987   52.7635 C.ar    1  ZINC000002634904   -0.1200
     28 C28       -10.9698    1.7010   53.8168 C.ar    1  ZINC000002634904   -0.0700
     29 N29        -9.0193    1.2127   56.4339 N.ar    1  ZINC000002634904   -0.4400
     30 C30       -13.1715   -1.6598   58.2732 C.ar    1  ZINC000002634904   -0.1200
     31 C31       -13.9309   -2.6596   57.7079 C.ar    1  ZINC000002634904   -0.0500
     32 H32       -14.8062   -1.0915   54.8229 H       1  ZINC000002634904    0.1400
     33 H33       -13.4568    0.6885   55.8463 H       1  ZINC000002634904    0.1400
     34 H34       -12.5661    1.4729   58.1958 H       1  ZINC000002634904    0.4200
     35 H35       -10.4832    2.3264   58.9114 H       1  ZINC000002634904    0.1300
     36 H36       -10.3912    1.3930   60.4242 H       1  ZINC000002634904    0.1300
     37 H37        -8.4965    5.3407   54.2744 H       1  ZINC000002634904    0.1300
     38 H38        -8.2125    6.3283   52.0395 H       1  ZINC000002634904    0.1300
     39 H39        -7.3942    4.9480   50.1747 H       1  ZINC000002634904    0.1300
     40 H40        -6.8540    2.5749   50.5340 H       1  ZINC000002634904    0.1300
     41 H41        -7.1245    1.5713   52.7635 H       1  ZINC000002634904    0.1200
     42 H42        -8.2103   -0.2458   53.4988 H       1  ZINC000002634904    0.1300
     43 H43        -9.5433   -1.1346   51.6322 H       1  ZINC000002634904    0.1300
     44 H44       -11.7756   -0.2142   51.1612 H       1  ZINC000002634904    0.1300
     45 H45       -12.6866    1.5993   52.5519 H       1  ZINC000002634904    0.1300
     46 H46       -11.3711    2.4971   54.4265 H       1  ZINC000002634904    0.1300
     47 H47       -12.7115   -1.8121   59.2384 H       1  ZINC000002634904    0.1500
     48 H48       -14.0636   -3.5972   58.2273 H       1  ZINC000002634904    0.1400
@<TRIPOS>BOND
     1     1     2    3
     2     2     3    1
     3     3    31   ar
     4     3     4   ar
     5     4     5   ar
     6     4    32    1
     7     5     6   ar
     8     5    33    1
     9     6     7    1
    10     6    30   ar
    11     7     8   am
    12     7    34    1
    13     8     9    2
    14     8    10    1
    15    10    11    1
    16    10    35    1
    17    10    36    1
    18    11    12    1
    19    12    29   ar
    20    12    13   ar
    21    13    14   ar
    22    14    15   ar
    23    15    16    1
    24    15    22   ar
    25    16    21   ar
    26    16    17   ar
    27    17    18   ar
    28    17    37    1
    29    18    19   ar
    30    18    38    1
    31    19    20   ar
    32    19    39    1
    33    20    21   ar
    34    20    40    1
    35    21    41    1
    36    22    23    1
    37    22    29   ar
    38    23    28   ar
    39    23    24   ar
    40    24    25   ar
    41    24    42    1
    42    25    26   ar
    43    25    43    1
    44    26    27   ar
    45    26    44    1
    46    27    28   ar
    47    27    45    1
    48    28    46    1
    49    30    31   ar
    50    30    47    1
    51    31    48    1
@<TRIPOS>SUBSTRUCTURE
     1 ZINC000002634904        1 TEMP              0 ****  ****    0 ROOT


##########                                Name:    ZINC000010935976
##########                DOCK_Rotatable_Bonds:                   3
##########                         Heavy_Atoms:                  26
##########                    Molecular_Weight:             391.558
##########                DOCK_Rotatable_Bonds:                   3
##########                       Formal_Charge:         -0.00999979
##########                     HBond_Acceptors:                   7
##########                        HBond_Donors:                   1
##########                         Heavy_Atoms:                  26
##########                          Grid_Score:          -22.967548
##########                     Grid_vdw_energy:          -22.502554
##########                      Grid_es_energy:           -0.464994
##########           Internal_energy_repulsive:          124.979660

@<TRIPOS>MOLECULE
ZINC000010935976
 51 54 1 0 0
SMALL
USER_CHARGES


@<TRIPOS>ATOM
      1 C1         -8.1359    2.3906   54.2306 C.3     1  ZINC000010935976   -0.0800
      2 C2         -8.4505    1.9546   55.6384 C.2     1  ZINC000010935976   -0.2100
      3 C3         -9.5496    1.3172   55.9917 C.2     1  ZINC000010935976   -0.0400
      4 C4        -10.6279    0.9500   55.0049 C.3     1  ZINC000010935976   -0.1000
      5 C5         -9.6403    0.9963   57.4040 C.2     1  ZINC000010935976   -0.2300
      6 C6         -8.5251    1.4358   58.1138 C.2     1  ZINC000010935976    0.0900
      7 N7         -8.4505    1.2170   59.4416 N.2     1  ZINC000010935976   -0.4900
      8 C8         -9.4063    0.5964   60.0903 C.2     1  ZINC000010935976    0.3400
      9 S9         -9.2441    0.3443   61.8266 S.3     1  ZINC000010935976    0.0500
     10 C10        -8.8695    2.0341   62.3560 C.3     1  ZINC000010935976   -0.1000
     11 H11        -8.4153    2.5839   61.5316 H       1  ZINC000010935976    0.1400
     12 C12        -7.9051    1.9990   63.5441 C.3     1  ZINC000010935976   -0.1000
     13 C13        -8.1895    0.8013   64.4322 C.3     1  ZINC000010935976   -0.1300
     14 C14        -9.5291    0.8693   65.1424 C.3     1  ZINC000010935976   -0.1400
     15 C15       -10.6822    0.7697   64.1421 C.3     1  ZINC000010935976    0.0700
     16 N16       -10.9826    2.1179   63.6336 N.am    1  ZINC000010935976   -0.7200
     17 C17       -10.1451    2.7266   62.7877 C.2     1  ZINC000010935976    0.5400
     18 O18       -10.4062    3.8355   62.3717 O.2     1  ZINC000010935976   -0.5200
     19 N19       -10.5242    0.1415   59.4528 N.am    1  ZINC000010935976   -0.5100
     20 C20       -11.5693   -0.5466   60.2146 C.3     1  ZINC000010935976    0.1200
     21 C21       -12.7846    0.3844   60.4045 C.3     1  ZINC000010935976   -0.1300
     22 C22       -13.7450   -0.0053   59.2536 C.3     1  ZINC000010935976   -0.1300
     23 C23       -13.5758   -1.5428   59.1729 C.3     1  ZINC000010935976   -0.1100
     24 C24       -12.0723   -1.7719   59.4315 C.3     1  ZINC000010935976   -0.1200
     25 C25       -10.6710    0.3233   58.1261 C.2     1  ZINC000010935976    0.5600
     26 O26       -11.6673   -0.0813   57.5516 O.2     1  ZINC000010935976   -0.5000
     27 S27        -7.3990    2.2231   57.0154 S.3     1  ZINC000010935976    0.2100
     28 H28        -7.1670    2.8898   54.2129 H       1  ZINC000010935976    0.0700
     29 H29        -8.1069    1.5181   53.5779 H       1  ZINC000010935976    0.0800
     30 H30        -8.9059    3.0791   53.8828 H       1  ZINC000010935976    0.0800
     31 H31       -10.4220   -0.0378   54.5926 H       1  ZINC000010935976    0.0700
     32 H32       -11.5938    0.9388   55.5098 H       1  ZINC000010935976    0.0800
     33 H33       -10.6476    1.6833   54.1988 H       1  ZINC000010935976    0.0700
     34 H34        -6.8818    1.9365   63.1739 H       1  ZINC000010935976    0.0900
     35 H35        -8.0199    2.9131   64.1266 H       1  ZINC000010935976    0.0900
     36 H36        -8.1660   -0.0996   63.8192 H       1  ZINC000010935976    0.0700
     37 H37        -7.4015    0.7292   65.1818 H       1  ZINC000010935976    0.0800
     38 H38        -9.5997    0.0466   65.8539 H       1  ZINC000010935976    0.0800
     39 H39        -9.6019    1.8145   65.6803 H       1  ZINC000010935976    0.0700
     40 H40       -10.3932    0.1225   63.3139 H       1  ZINC000010935976    0.1100
     41 H41       -11.5627    0.3614   64.6384 H       1  ZINC000010935976    0.0900
     42 H42       -11.7956    2.5680   63.9121 H       1  ZINC000010935976    0.4000
     43 H43       -11.1808   -0.8571   61.1846 H       1  ZINC000010935976    0.1000
     44 H44       -13.2552    0.2051   61.3712 H       1  ZINC000010935976    0.0800
     45 H45       -12.4836    1.4280   60.3134 H       1  ZINC000010935976    0.0700
     46 H46       -14.7732    0.2576   59.5027 H       1  ZINC000010935976    0.0600
     47 H47       -13.4401    0.4664   58.3195 H       1  ZINC000010935976    0.1100
     48 H48       -14.1741   -2.0333   59.9407 H       1  ZINC000010935976    0.0600
     49 H49       -13.8521   -1.9056   58.1829 H       1  ZINC000010935976    0.0700
     50 H50       -11.5389   -1.8546   58.4846 H       1  ZINC000010935976    0.0800
     51 H51       -11.9286   -2.6770   60.0218 H       1  ZINC000010935976    0.0700
@<TRIPOS>BOND
     1     1     2    1
     2     1    28    1
     3     1    29    1
     4     1    30    1
     5     2    27    1
     6     2     3    2
     7     3     4    1
     8     3     5    1
     9     4    31    1
    10     4    32    1
    11     4    33    1
    12     5    25    1
    13     5     6    2
    14     6     7    1
    15     6    27    1
    16     7     8    2
    17     8     9    1
    18     8    19    1
    19     9    10    1
    20    10    11    1
    21    10    17    1
    22    10    12    1
    23    12    13    1
    24    12    34    1
    25    12    35    1
    26    13    14    1
    27    13    36    1
    28    13    37    1
    29    14    15    1
    30    14    38    1
    31    14    39    1
    32    15    16    1
    33    15    40    1
    34    15    41    1
    35    16    17   am
    36    16    42    1
    37    17    18    2
    38    19    20    1
    39    19    25   am
    40    20    24    1
    41    20    21    1
    42    20    43    1
    43    21    22    1
    44    21    44    1
    45    21    45    1
    46    22    23    1
    47    22    46    1
    48    22    47    1
    49    23    24    1
    50    23    48    1
    51    23    49    1
    52    24    50    1
    53    24    51    1
    54    25    26    2
@<TRIPOS>SUBSTRUCTURE
     1 ZINC000010935976        1 TEMP              0 ****  ****    0 ROOT


##########                                Name:    ZINC000820901229
##########                DOCK_Rotatable_Bonds:                   3
##########                         Heavy_Atoms:                  18
##########                    Molecular_Weight:             331.233
##########                DOCK_Rotatable_Bonds:                   3
##########                       Formal_Charge:           0.0099999
##########                     HBond_Acceptors:                   5
##########                        HBond_Donors:                   1
##########                         Heavy_Atoms:                  18
##########                          Grid_Score:          -22.846804
##########                     Grid_vdw_energy:          -22.477110
##########                      Grid_es_energy:           -0.369695
##########           Internal_energy_repulsive:            3.233606

@<TRIPOS>MOLECULE
ZINC000820901229
 33 35 1 0 0
SMALL
USER_CHARGES


@<TRIPOS>ATOM
      1 O1        -11.8940   -3.0159   54.8341 O.2     1  ZINC000820901229   -0.5300
      2 C2        -12.3646   -1.8943   54.8473 C.2     1  ZINC000820901229    0.6000
      3 N3        -13.4218   -1.6163   55.6357 N.am    1  ZINC000820901229   -0.7100
      4 C4        -14.0080   -2.6665   56.4722 C.3     1  ZINC000820901229    0.1600
      5 H5        -13.2180   -3.2216   56.9780 H       1  ZINC000820901229    0.1000
      6 C6        -14.8442   -3.6205   55.6042 C.3     1  ZINC000820901229   -0.1300
      7 C7        -15.5245   -4.6934   56.4492 C.3     1  ZINC000820901229   -0.1100
      8 C8        -16.3671   -4.0706   57.5747 C.3     1  ZINC000820901229   -0.1100
      9 C9        -15.4418   -3.2065   58.4063 C.3     1  ZINC000820901229    0.0800
     10 H10       -14.5912   -3.7988   58.7439 H       1  ZINC000820901229    0.0700
     11 O11       -16.0067   -2.5069   59.5092 O.3     1  ZINC000820901229   -0.3700
     12 C12       -15.0485   -1.4671   59.8322 C.3     1  ZINC000820901229    0.0500
     13 C13       -14.2776   -1.1368   58.5279 C.3     1  ZINC000820901229   -0.1500
     14 C14       -14.9432   -2.0491   57.4969 C.3     1  ZINC000820901229   -0.1400
     15 H15       -15.7763   -1.5416   57.0105 H       1  ZINC000820901229    0.0900
     16 C16       -11.7754   -0.8387   54.0065 C.2     1  ZINC000820901229    0.0100
     17 C17       -12.4725    0.2346   53.5716 C.2     1  ZINC000820901229   -0.2200
     18 S18       -11.4399    1.2196   52.6306 S.3     1  ZINC000820901229    0.3100
     19 C19       -10.1367    0.1426   52.8715 C.2     1  ZINC000820901229   -0.0100
     20 Br20       -8.3991    0.3789   52.1638 Br      1  ZINC000820901229    0.0700
     21 N21       -10.5003   -0.8495   53.6071 N.2     1  ZINC000820901229   -0.4100
     22 H22       -13.7944   -0.7209   55.6493 H       1  ZINC000820901229    0.4100
     23 H23       -15.6060   -3.0467   55.0765 H       1  ZINC000820901229    0.0700
     24 H24       -14.1930   -4.1016   54.8745 H       1  ZINC000820901229    0.0700
     25 H25       -16.1717   -5.2937   55.8098 H       1  ZINC000820901229    0.0800
     26 H26       -14.7628   -5.3373   56.8887 H       1  ZINC000820901229    0.0700
     27 H27       -17.1616   -3.4586   57.1476 H       1  ZINC000820901229    0.0700
     28 H28       -16.7966   -4.8573   58.1949 H       1  ZINC000820901229    0.0800
     29 H29       -15.5703   -0.5795   60.1899 H       1  ZINC000820901229    0.0900
     30 H30       -14.3547   -1.8248   60.5930 H       1  ZINC000820901229    0.0600
     31 H31       -14.4118   -0.0899   58.2557 H       1  ZINC000820901229    0.0800
     32 H32       -13.2194   -1.3756   58.6348 H       1  ZINC000820901229    0.0800
     33 H33       -13.5121    0.4364   53.7833 H       1  ZINC000820901229    0.2000
@<TRIPOS>BOND
     1     1     2    2
     2     2     3   am
     3     2    16    1
     4     3     4    1
     5     3    22    1
     6     4     5    1
     7     4    14    1
     8     4     6    1
     9     6     7    1
    10     6    23    1
    11     6    24    1
    12     7     8    1
    13     7    25    1
    14     7    26    1
    15     8     9    1
    16     8    27    1
    17     8    28    1
    18     9    10    1
    19     9    14    1
    20     9    11    1
    21    11    12    1
    22    12    13    1
    23    12    29    1
    24    12    30    1
    25    13    14    1
    26    13    31    1
    27    13    32    1
    28    14    15    1
    29    16    21    1
    30    16    17    2
    31    17    18    1
    32    17    33    1
    33    18    19    1
    34    19    20    1
    35    19    21    2
@<TRIPOS>SUBSTRUCTURE
     1 ZINC000820901229        1 TEMP              0 ****  ****    0 ROOT


##########                                Name:    ZINC000098105561
##########                DOCK_Rotatable_Bonds:                   5
##########                         Heavy_Atoms:                  25
##########                    Molecular_Weight:             368.336
##########                DOCK_Rotatable_Bonds:                   5
##########                       Formal_Charge:         2.98023e-08
##########                     HBond_Acceptors:                   9
##########                        HBond_Donors:                   0
##########                         Heavy_Atoms:                  25
##########                          Grid_Score:          -22.789204
##########                     Grid_vdw_energy:          -22.174994
##########                      Grid_es_energy:           -0.614211
##########           Internal_energy_repulsive:           13.053670

@<TRIPOS>MOLECULE
ZINC000098105561
 36 38 1 0 0
SMALL
USER_CHARGES


@<TRIPOS>ATOM
      1 C1         -1.4204    4.0662   50.4621 C.3     1  ZINC000098105561   -0.0800
      2 C2         -2.2199    3.6377   51.6654 C.2     1  ZINC000098105561    0.0900
      3 C3         -1.6763    3.4823   52.8748 C.2     1  ZINC000098105561   -0.2700
      4 S4         -2.9484    2.9784   53.9846 S.3     1  ZINC000098105561    0.1600
      5 C5         -4.0904    3.0253   52.7132 C.2     1  ZINC000098105561    0.2500
      6 N6         -5.4384    2.7219   52.8439 N.am    1  ZINC000098105561   -0.5200
      7 C7         -6.2178    3.3054   53.9385 C.3     1  ZINC000098105561    0.0500
      8 C8         -6.5424    4.7645   53.6121 C.3     1  ZINC000098105561    0.4400
      9 F9         -5.3553    5.5014   53.5395 F       1  ZINC000098105561   -0.1700
     10 F10        -7.2081    4.8306   52.3834 F       1  ZINC000098105561   -0.1700
     11 F11        -7.3605    5.2959   54.6149 F       1  ZINC000098105561   -0.1700
     12 C12        -6.0305    1.8904   51.9637 C.2     1  ZINC000098105561    0.5800
     13 O13        -5.3840    1.4064   51.0558 O.2     1  ZINC000098105561   -0.4100
     14 C14        -7.4690    1.5667   52.1031 C.2     1  ZINC000098105561    0.0800
     15 C15        -7.8181    0.3177   52.4992 C.2     1  ZINC000098105561   -0.2000
     16 C16        -9.2511    0.0001   52.6190 C.2     1  ZINC000098105561    0.4200
     17 O17        -9.6442   -1.0097   53.1761 O.2     1  ZINC000098105561   -0.4300
     18 C18       -10.1834    0.9787   52.0237 C.ar    1  ZINC000098105561   -0.2200
     19 C19       -11.5323    0.6818   51.8414 C.ar    1  ZINC000098105561   -0.0300
     20 C20       -12.3641    1.6239   51.2762 C.ar    1  ZINC000098105561   -0.1400
     21 C21       -11.8612    2.8585   50.8910 C.ar    1  ZINC000098105561   -0.0500
     22 C22       -10.5292    3.1646   51.0684 C.ar    1  ZINC000098105561   -0.1400
     23 C23        -9.6714    2.2308   51.6403 C.ar    1  ZINC000098105561    0.1400
     24 O24        -8.3704    2.5220   51.8379 O.3     1  ZINC000098105561   -0.2300
     25 N25        -3.5149    3.3910   51.6102 N.2     1  ZINC000098105561   -0.4600
     26 H26        -1.4249    5.1540   50.3915 H       1  ZINC000098105561    0.0800
     27 H27        -0.3942    3.7130   50.5630 H       1  ZINC000098105561    0.0800
     28 H28        -1.8638    3.6419   49.5613 H       1  ZINC000098105561    0.0800
     29 H29        -0.6381    3.6378   53.1283 H       1  ZINC000098105561    0.1900
     30 H30        -7.1450    2.7460   54.0628 H       1  ZINC000098105561    0.1700
     31 H31        -5.6393    3.2595   54.8612 H       1  ZINC000098105561    0.1400
     32 H32        -7.0654   -0.4244   52.7206 H       1  ZINC000098105561    0.1800
     33 H33       -11.9231   -0.2796   52.1403 H       1  ZINC000098105561    0.1400
     34 H34       -13.4109    1.4005   51.1322 H       1  ZINC000098105561    0.1400
     35 H35       -12.5215    3.5883   50.4464 H       1  ZINC000098105561    0.1400
     36 H36       -10.1515    4.1295   50.7638 H       1  ZINC000098105561    0.1400
@<TRIPOS>BOND
     1     1     2    1
     2     1    26    1
     3     1    27    1
     4     1    28    1
     5     2    25    1
     6     2     3    2
     7     3     4    1
     8     3    29    1
     9     4     5    1
    10     5     6    1
    11     5    25    2
    12     6     7    1
    13     6    12   am
    14     7     8    1
    15     7    30    1
    16     7    31    1
    17     8     9    1
    18     8    10    1
    19     8    11    1
    20    12    13    2
    21    12    14    1
    22    14    24    1
    23    14    15    2
    24    15    16    1
    25    15    32    1
    26    16    17    2
    27    16    18    1
    28    18    23   ar
    29    18    19   ar
    30    19    20   ar
    31    19    33    1
    32    20    21   ar
    33    20    34    1
    34    21    22   ar
    35    21    35    1
    36    22    23   ar
    37    22    36    1
    38    23    24    1
@<TRIPOS>SUBSTRUCTURE
     1 ZINC000098105561        1 TEMP              0 ****  ****    0 ROOT


##########                                Name:    ZINC000879023512
##########                DOCK_Rotatable_Bonds:                   4
##########                         Heavy_Atoms:                  20
##########                    Molecular_Weight:             346.156
##########                DOCK_Rotatable_Bonds:                   4
##########                       Formal_Charge:        -5.96046e-08
##########                     HBond_Acceptors:                   7
##########                        HBond_Donors:                   1
##########                         Heavy_Atoms:                  20
##########                          Grid_Score:          -22.708916
##########                     Grid_vdw_energy:          -23.162483
##########                      Grid_es_energy:            0.453568
##########           Internal_energy_repulsive:            4.164965

@<TRIPOS>MOLECULE
ZINC000879023512
 33 34 1 0 0
SMALL
USER_CHARGES


@<TRIPOS>ATOM
      1 O1         -0.4574    3.0899   51.2199 O.2     1  ZINC000879023512   -0.5600
      2 C2         -1.5454    2.8243   50.7463 C.2     1  ZINC000879023512    0.7200
      3 N3         -1.6318    2.3098   49.5035 N.am    1  ZINC000879023512   -0.6800
      4 C4         -0.4695    2.0863   48.7562 C.ar    1  ZINC000879023512    0.1800
      5 C5         -0.1997    2.8666   47.6399 C.ar    1  ZINC000879023512   -0.0900
      6 C6          0.9480    2.6440   46.9041 C.ar    1  ZINC000879023512   -0.0700
      7 C7          1.8280    1.6443   47.2783 C.ar    1  ZINC000879023512   -0.0700
      8 Br8         3.3981    1.3425   46.2686 Br      1  ZINC000879023512    0.0200
      9 C9          1.5616    0.8652   48.3905 C.ar    1  ZINC000879023512    0.0000
     10 N10         2.5055   -0.2034   48.7879 N.pl3   1  ZINC000879023512    0.0200
     11 O11         2.2715   -0.8895   49.7667 O.2     1  ZINC000879023512   -0.1500
     12 O12         3.5161   -0.3968   48.1362 O.2     1  ZINC000879023512   -0.1300
     13 C13         0.4189    1.0875   49.1332 C.ar    1  ZINC000879023512   -0.0500
     14 N14        -2.6644    3.0395   51.4659 N.am    1  ZINC000879023512   -0.6300
     15 C15        -4.0367    2.7537   51.0221 C.3     1  ZINC000879023512    0.0900
     16 C16        -4.9853    3.1837   52.1608 C.3     1  ZINC000879023512   -0.1200
     17 C17        -4.1336    4.2097   52.9539 C.3     1  ZINC000879023512   -0.1400
     18 H18        -4.1772    5.1952   52.4902 H       1  ZINC000879023512    0.1000
     19 C19        -4.5759    4.2753   54.4171 C.3     1  ZINC000879023512    0.0700
     20 F20        -4.3821    3.0274   55.0193 F       1  ZINC000879023512   -0.2100
     21 C21        -2.7149    3.5944   52.8307 C.3     1  ZINC000879023512    0.1300
     22 H22        -2.4993    2.0942   49.1272 H       1  ZINC000879023512    0.4200
     23 H23        -0.8868    3.6466   47.3469 H       1  ZINC000879023512    0.1600
     24 H24         1.1582    3.2506   46.0357 H       1  ZINC000879023512    0.1600
     25 H25         0.2116    0.4794   50.0013 H       1  ZINC000879023512    0.1800
     26 H26        -4.2602    3.3218   50.1190 H       1  ZINC000879023512    0.0700
     27 H27        -4.1492    1.6869   50.8288 H       1  ZINC000879023512    0.0700
     28 H28        -5.8817    3.6557   51.7584 H       1  ZINC000879023512    0.0900
     29 H29        -5.2456    2.3315   52.7885 H       1  ZINC000879023512    0.0900
     30 H30        -3.9862    5.0272   54.9416 H       1  ZINC000879023512    0.0800
     31 H31        -5.6315    4.5424   54.4660 H       1  ZINC000879023512    0.0800
     32 H32        -2.5774    2.8067   53.5715 H       1  ZINC000879023512    0.0800
     33 H33        -1.9548    4.3664   52.9511 H       1  ZINC000879023512    0.0900
@<TRIPOS>BOND
     1     1     2    2
     2     2     3   am
     3     2    14   am
     4     3     4    1
     5     3    22    1
     6     4    13   ar
     7     4     5   ar
     8     5     6   ar
     9     5    23    1
    10     6     7   ar
    11     6    24    1
    12     7     8    1
    13     7     9   ar
    14     9    10    1
    15     9    13   ar
    16    10    11    2
    17    10    12    2
    18    13    25    1
    19    14    21    1
    20    14    15    1
    21    15    16    1
    22    15    26    1
    23    15    27    1
    24    16    17    1
    25    16    28    1
    26    16    29    1
    27    17    18    1
    28    17    19    1
    29    17    21    1
    30    19    20    1
    31    19    30    1
    32    19    31    1
    33    21    32    1
    34    21    33    1
@<TRIPOS>SUBSTRUCTURE
     1 ZINC000879023512        1 TEMP              0 ****  ****    0 ROOT


##########                                Name:    ZINC001135312623
##########                DOCK_Rotatable_Bonds:                   3
##########                         Heavy_Atoms:                  25
##########                    Molecular_Weight:             341.323
##########                DOCK_Rotatable_Bonds:                   3
##########                       Formal_Charge:        -1.78814e-07
##########                     HBond_Acceptors:                   8
##########                        HBond_Donors:                   2
##########                         Heavy_Atoms:                  25
##########                          Grid_Score:          -22.587662
##########                     Grid_vdw_energy:          -21.863697
##########                      Grid_es_energy:           -0.723964
##########           Internal_energy_repulsive:            5.512249

@<TRIPOS>MOLECULE
ZINC001135312623
 40 42 1 0 0
SMALL
USER_CHARGES


@<TRIPOS>ATOM
      1 C1        -10.3587   -1.2252   59.3877 C.3     1  ZINC001135312623   -0.1300
      2 C2        -11.8482   -1.4172   59.2643 C.ar    1  ZINC001135312623   -0.0600
      3 C3        -12.5621   -1.9738   60.3070 C.ar    1  ZINC001135312623   -0.1000
      4 C4        -13.9292   -2.1508   60.1944 C.ar    1  ZINC001135312623   -0.0300
      5 C5        -14.7051   -2.7587   61.3343 C.3     1  ZINC001135312623   -0.1300
      6 C6        -14.5856   -1.7707   59.0384 C.ar    1  ZINC001135312623   -0.0200
      7 N7        -16.0488   -1.9619   58.9221 N.pl3   1  ZINC001135312623    0.0200
      8 O8        -16.5405   -2.2613   57.8487 O.2     1  ZINC001135312623   -0.1500
      9 O9        -16.7611   -1.8199   59.8998 O.2     1  ZINC001135312623   -0.1500
     10 C10       -13.8776   -1.2124   57.9920 C.ar    1  ZINC001135312623   -0.0700
     11 C11       -12.5056   -1.0289   58.1037 C.ar    1  ZINC001135312623    0.1500
     12 N12       -11.7857   -0.4639   57.0463 N.am    1  ZINC001135312623   -0.6600
     13 C13       -11.6014   -1.1615   55.9078 C.2     1  ZINC001135312623    0.5600
     14 O14       -12.0610   -2.2821   55.8003 O.2     1  ZINC001135312623   -0.5000
     15 C15       -10.8418   -0.5654   54.7920 C.ar    1  ZINC001135312623   -0.1600
     16 C16       -10.7958   -1.2104   53.5532 C.ar    1  ZINC001135312623   -0.0400
     17 C17       -10.0858   -0.6536   52.5120 C.ar    1  ZINC001135312623   -0.1500
     18 C18        -9.4165    0.5496   52.6950 C.ar    1  ZINC001135312623    0.2000
     19 N19        -8.6891    1.1290   51.6551 N.am    1  ZINC001135312623   -0.6700
     20 C20        -7.8017    2.1072   51.9255 C.2     1  ZINC001135312623    0.6600
     21 O21        -7.1869    2.6279   51.0159 O.2     1  ZINC001135312623   -0.4900
     22 O22        -7.5887    2.5140   53.1899 O.3     1  ZINC001135312623   -0.3400
     23 C23        -8.7264    2.5020   54.0952 C.3     1  ZINC001135312623    0.1100
     24 C24        -9.4622    1.1958   53.9294 C.ar    1  ZINC001135312623   -0.1800
     25 C25       -10.1713    0.6493   54.9709 C.ar    1  ZINC001135312623    0.0000
     26 H26       -10.1530   -0.2446   59.8168 H       1  ZINC001135312623    0.0900
     27 H27        -9.9449   -1.9989   60.0345 H       1  ZINC001135312623    0.0800
     28 H28        -9.9006   -1.2933   58.4009 H       1  ZINC001135312623    0.0700
     29 H29       -12.0524   -2.2717   61.2113 H       1  ZINC001135312623    0.1500
     30 H30       -14.9733   -1.9794   62.0477 H       1  ZINC001135312623    0.0900
     31 H31       -15.6112   -3.2259   60.9487 H       1  ZINC001135312623    0.0800
     32 H32       -14.0918   -3.5105   61.8311 H       1  ZINC001135312623    0.0800
     33 H33       -14.3909   -0.9158   57.0893 H       1  ZINC001135312623    0.1700
     34 H34       -11.4189    0.4299   57.1320 H       1  ZINC001135312623    0.4200
     35 H35       -11.3167   -2.1459   53.4119 H       1  ZINC001135312623    0.1400
     36 H36       -10.0496   -1.1523   51.5548 H       1  ZINC001135312623    0.1500
     37 H37        -8.8211    0.8294   50.7420 H       1  ZINC001135312623    0.4300
     38 H38        -8.3767    2.5968   55.1233 H       1  ZINC001135312623    0.1300
     39 H39        -9.3932    3.3304   53.8555 H       1  ZINC001135312623    0.1000
     40 H40       -10.2080    1.1535   55.9254 H       1  ZINC001135312623    0.1500
@<TRIPOS>BOND
     1     1     2    1
     2     1    26    1
     3     1    27    1
     4     1    28    1
     5     2    11   ar
     6     2     3   ar
     7     3     4   ar
     8     3    29    1
     9     4     5    1
    10     4     6   ar
    11     5    30    1
    12     5    31    1
    13     5    32    1
    14     6     7    1
    15     6    10   ar
    16     7     8    2
    17     7     9    2
    18    10    11   ar
    19    10    33    1
    20    11    12    1
    21    12    13   am
    22    12    34    1
    23    13    14    2
    24    13    15    1
    25    15    25   ar
    26    15    16   ar
    27    16    17   ar
    28    16    35    1
    29    17    18   ar
    30    17    36    1
    31    18    24   ar
    32    18    19    1
    33    19    20   am
    34    19    37    1
    35    20    21    2
    36    20    22    1
    37    22    23    1
    38    23    24    1
    39    23    38    1
    40    23    39    1
    41    24    25   ar
    42    25    40    1
@<TRIPOS>SUBSTRUCTURE
     1 ZINC001135312623        1 TEMP              0 ****  ****    0 ROOT


##########                                Name:    ZINC000431691749
##########                DOCK_Rotatable_Bonds:                   4
##########                         Heavy_Atoms:                  24
##########                    Molecular_Weight:             328.454
##########                DOCK_Rotatable_Bonds:                   4
##########                       Formal_Charge:         -0.00999957
##########                     HBond_Acceptors:                   4
##########                        HBond_Donors:                   0
##########                         Heavy_Atoms:                  24
##########                          Grid_Score:          -22.550142
##########                     Grid_vdw_energy:          -21.885355
##########                      Grid_es_energy:           -0.664787
##########           Internal_energy_repulsive:          142.315384

@<TRIPOS>MOLECULE
ZINC000431691749
 52 54 1 0 0
SMALL
USER_CHARGES


@<TRIPOS>ATOM
      1 C1        -11.0974    0.4309   51.9902 C.3     1  ZINC000431691749   -0.1200
      2 C2        -10.6053    0.4166   53.4145 C.ar    1  ZINC000431691749   -0.0800
      3 C3         -9.5411    1.2164   53.7861 C.ar    1  ZINC000431691749   -0.1200
      4 C4         -9.0897    1.2034   55.0927 C.ar    1  ZINC000431691749   -0.1100
      5 C5         -9.7029    0.3909   56.0277 C.ar    1  ZINC000431691749   -0.1100
      6 C6        -10.7680   -0.4085   55.6563 C.ar    1  ZINC000431691749   -0.0800
      7 C7        -11.4365   -1.2948   56.6756 C.3     1  ZINC000431691749    0.2000
      8 H8        -11.3473   -2.3360   56.3659 H       1  ZINC000431691749    0.1100
      9 N9        -10.7895   -1.1154   57.9776 N.am    1  ZINC000431691749   -0.5700
     10 C10       -10.2428   -2.1164   58.6957 C.2     1  ZINC000431691749    0.5200
     11 O11       -10.1955   -3.2905   58.3973 O.2     1  ZINC000431691749   -0.4400
     12 C12        -9.6986   -1.4687   59.9535 C.3     1  ZINC000431691749    0.0900
     13 H13       -10.1904   -1.8746   60.8374 H       1  ZINC000431691749    0.1300
     14 C14        -8.1836   -1.6618   60.0460 C.3     1  ZINC000431691749   -0.1500
     15 N15       -10.0332   -0.0443   59.7820 N.am    1  ZINC000431691749   -0.6000
     16 C16        -9.7329    1.0439   60.7158 C.3     1  ZINC000431691749    0.1500
     17 C17       -10.9738    1.8393   61.1543 C.3     1  ZINC000431691749   -0.1600
     18 C18       -11.1218    0.8250   62.3006 C.3     1  ZINC000431691749   -0.1400
     19 C19        -9.6081    0.5841   62.1779 C.3     1  ZINC000431691749   -0.1500
     20 C20       -10.6631    0.0631   58.5983 C.2     1  ZINC000431691749    0.7000
     21 O21       -11.0779    1.1124   58.1464 O.2     1  ZINC000431691749   -0.5300
     22 C22       -12.9158   -0.9202   56.7852 C.3     1  ZINC000431691749   -0.0700
     23 C23       -13.1210    0.5045   56.2666 C.3     1  ZINC000431691749   -0.1400
     24 C24       -13.7513   -1.8923   55.9498 C.3     1  ZINC000431691749   -0.1400
     25 C25       -13.3546   -0.9984   58.2489 C.3     1  ZINC000431691749   -0.1600
     26 C26       -11.2220   -0.3922   54.3509 C.ar    1  ZINC000431691749   -0.1100
     27 H27       -11.8645    1.1970   51.8785 H       1  ZINC000431691749    0.0700
     28 H28       -10.2654    0.6493   51.3206 H       1  ZINC000431691749    0.0700
     29 H29       -11.5180   -0.5435   51.7414 H       1  ZINC000431691749    0.0700
     30 H30        -9.0619    1.8514   53.0555 H       1  ZINC000431691749    0.1200
     31 H31        -8.2576    1.8278   55.3829 H       1  ZINC000431691749    0.1200
     32 H32        -9.3499    0.3802   57.0483 H       1  ZINC000431691749    0.1100
     33 H33        -7.7077   -1.2287   59.1663 H       1  ZINC000431691749    0.0700
     34 H34        -7.8085   -1.1677   60.9424 H       1  ZINC000431691749    0.0800
     35 H35        -7.9554   -2.7264   60.0957 H       1  ZINC000431691749    0.0800
     36 H36        -8.9057    1.6710   60.3831 H       1  ZINC000431691749    0.1000
     37 H37       -10.7473    2.8504   61.4925 H       1  ZINC000431691749    0.0900
     38 H38       -11.7909    1.8060   60.4336 H       1  ZINC000431691749    0.0700
     39 H39       -11.4168    1.2766   63.2478 H       1  ZINC000431691749    0.0700
     40 H40       -11.7250   -0.0445   62.0391 H       1  ZINC000431691749    0.0800
     41 H41        -9.3224   -0.4625   62.2836 H       1  ZINC000431691749    0.1000
     42 H42        -9.0081    1.2521   62.7960 H       1  ZINC000431691749    0.0900
     43 H43       -12.8084    0.5602   55.2239 H       1  ZINC000431691749    0.0600
     44 H44       -14.1749    0.7713   56.3447 H       1  ZINC000431691749    0.0600
     45 H45       -12.5258    1.1971   56.8618 H       1  ZINC000431691749    0.0600
     46 H46       -13.6051   -2.9073   56.3192 H       1  ZINC000431691749    0.0500
     47 H47       -14.8052   -1.6255   56.0278 H       1  ZINC000431691749    0.0600
     48 H48       -13.4386   -1.8366   54.9071 H       1  ZINC000431691749    0.0500
     49 H49       -12.4880   -0.8623   58.8957 H       1  ZINC000431691749    0.0700
     50 H50       -14.0855   -0.2155   58.4513 H       1  ZINC000431691749    0.0400
     51 H51       -13.8030   -1.9729   58.4422 H       1  ZINC000431691749    0.1000
     52 H52       -12.0542   -1.0166   54.0608 H       1  ZINC000431691749    0.1300
@<TRIPOS>BOND
     1     1     2    1
     2     1    27    1
     3     1    28    1
     4     1    29    1
     5     2    26   ar
     6     2     3   ar
     7     3     4   ar
     8     3    30    1
     9     4     5   ar
    10     4    31    1
    11     5     6   ar
    12     5    32    1
    13     6     7    1
    14     6    26   ar
    15     7     8    1
    16     7     9    1
    17     7    22    1
    18     9    20   am
    19     9    10   am
    20    10    11    2
    21    10    12    1
    22    12    13    1
    23    12    14    1
    24    12    15    1
    25    14    33    1
    26    14    34    1
    27    14    35    1
    28    15    16    1
    29    15    20   am
    30    16    19    1
    31    16    17    1
    32    16    36    1
    33    17    18    1
    34    17    37    1
    35    17    38    1
    36    18    19    1
    37    18    39    1
    38    18    40    1
    39    19    41    1
    40    19    42    1
    41    20    21    2
    42    22    23    1
    43    22    24    1
    44    22    25    1
    45    23    43    1
    46    23    44    1
    47    23    45    1
    48    24    46    1
    49    24    47    1
    50    24    48    1
    51    25    49    1
    52    25    50    1
    53    25    51    1
    54    26    52    1
@<TRIPOS>SUBSTRUCTURE
     1 ZINC000431691749        1 TEMP              0 ****  ****    0 ROOT


##########                                Name:    ZINC000828026236
##########                DOCK_Rotatable_Bonds:                   1
##########                         Heavy_Atoms:                  19
##########                    Molecular_Weight:             383.045
##########                DOCK_Rotatable_Bonds:                   1
##########                       Formal_Charge:                   0
##########                     HBond_Acceptors:                   5
##########                        HBond_Donors:                   0
##########                         Heavy_Atoms:                  19
##########                          Grid_Score:          -22.487503
##########                     Grid_vdw_energy:          -21.563147
##########                      Grid_es_energy:           -0.924357
##########           Internal_energy_repulsive:           19.205362

@<TRIPOS>MOLECULE
ZINC000828026236
 28 30 1 0 0
SMALL
USER_CHARGES


@<TRIPOS>ATOM
      1 N1         -7.2282    2.6533   55.1984 N.1     1  ZINC000828026236   -0.3800
      2 C2         -6.5733    2.7478   54.2750 C.1     1  ZINC000828026236    0.2600
      3 C3         -5.7478    2.8669   53.1110 C.ar    1  ZINC000828026236   -0.0500
      4 C4         -4.4426    3.3615   53.2108 C.ar    1  ZINC000828026236    0.0100
      5 C5         -3.6852    3.4570   52.0553 C.ar    1  ZINC000828026236   -0.1600
      6 Br6        -1.9148    4.1174   52.1284 Br      1  ZINC000828026236   -0.0100
      7 C7         -4.2338    3.0650   50.8470 C.ar    1  ZINC000828026236    0.1800
      8 N8         -5.4667    2.6011   50.7745 N.ar    1  ZINC000828026236   -0.5000
      9 C9         -6.2316    2.4836   51.8480 C.ar    1  ZINC000828026236    0.3600
     10 N10        -7.5198    1.9917   51.7248 N.3     1  ZINC000828026236   -0.4900
     11 C11        -8.5086    2.9916   52.1521 C.3     1  ZINC000828026236    0.0500
     12 C12        -9.9038    2.5786   51.6661 C.3     1  ZINC000828026236    0.1100
     13 N13       -10.1246    1.1797   52.0418 N.pl3   1  ZINC000828026236   -0.4400
     14 C14       -11.2949    0.4880   52.0946 C.2     1  ZINC000828026236   -0.0300
     15 Br15      -13.0179    1.1501   51.6840 Br      1  ZINC000828026236    0.0200
     16 C16       -10.9864   -0.7635   52.4971 C.2     1  ZINC000828026236    0.0300
     17 N17        -9.6569   -0.8261   52.6831 N.2     1  ZINC000828026236   -0.4700
     18 C18        -9.1325    0.3307   52.4120 C.2     1  ZINC000828026236    0.2300
     19 C19        -7.6781    0.7327   52.4732 C.3     1  ZINC000828026236    0.1500
     20 H20        -4.0360    3.6618   54.1653 H       1  ZINC000828026236    0.1600
     21 H21        -3.6419    3.1403   49.9469 H       1  ZINC000828026236    0.1800
     22 H22        -8.5088    3.0597   53.2401 H       1  ZINC000828026236    0.0700
     23 H23        -8.2495    3.9620   51.7287 H       1  ZINC000828026236    0.1100
     24 H24       -10.6585    3.2090   52.1363 H       1  ZINC000828026236    0.1100
     25 H25        -9.9612    2.6817   50.5825 H       1  ZINC000828026236    0.1000
     26 H26       -11.6860   -1.5729   52.6442 H       1  ZINC000828026236    0.1800
     27 H27        -7.0620   -0.0444   52.0208 H       1  ZINC000828026236    0.1200
     28 H28        -7.3806    0.8815   53.5111 H       1  ZINC000828026236    0.1000
@<TRIPOS>BOND
     1     1     2    3
     2     2     3    1
     3     3     9   ar
     4     3     4   ar
     5     4     5   ar
     6     4    20    1
     7     5     6    1
     8     5     7   ar
     9     7     8   ar
    10     7    21    1
    11     8     9   ar
    12     9    10    1
    13    10    19    1
    14    10    11    1
    15    11    12    1
    16    11    22    1
    17    11    23    1
    18    12    13    1
    19    12    24    1
    20    12    25    1
    21    13    18    1
    22    13    14    1
    23    14    15    1
    24    14    16    2
    25    16    17    1
    26    16    26    1
    27    17    18    2
    28    18    19    1
    29    19    27    1
    30    19    28    1
@<TRIPOS>SUBSTRUCTURE
     1 ZINC000828026236        1 TEMP              0 ****  ****    0 ROOT


##########                                Name:    ZINC001173835973
##########                DOCK_Rotatable_Bonds:                   4
##########                         Heavy_Atoms:                  26
##########                    Molecular_Weight:             343.388
##########                DOCK_Rotatable_Bonds:                   4
##########                       Formal_Charge:           -0.010001
##########                     HBond_Acceptors:                   6
##########                        HBond_Donors:                   4
##########                         Heavy_Atoms:                  26
##########                          Grid_Score:          -22.407635
##########                     Grid_vdw_energy:          -22.868023
##########                      Grid_es_energy:            0.460389
##########           Internal_energy_repulsive:            8.193228

@<TRIPOS>MOLECULE
ZINC001173835973
 43 46 1 0 0
SMALL
USER_CHARGES


@<TRIPOS>ATOM
      1 C1        -13.6322   -0.5988   60.9861 C.3     1  ZINC001173835973   -0.1700
      2 C2        -12.3819   -0.0225   60.3730 C.2     1  ZINC001173835973    0.5100
      3 O3        -12.1986    1.1764   60.3831 O.2     1  ZINC001173835973   -0.5200
      4 N4        -11.4675   -0.8394   59.8136 N.am    1  ZINC001173835973   -0.6800
      5 C5        -10.3067   -0.3044   59.2443 C.ar    1  ZINC001173835973    0.1800
      6 C6         -9.0590   -0.7591   59.6522 C.ar    1  ZINC001173835973   -0.1900
      7 C7         -7.9118   -0.2314   59.0907 C.ar    1  ZINC001173835973   -0.0600
      8 C8         -8.0012    0.7489   58.1219 C.ar    1  ZINC001173835973   -0.1900
      9 C9         -9.2467    1.2084   57.7091 C.ar    1  ZINC001173835973    0.2200
     10 N10        -9.3366    2.1996   56.7298 N.pl3   1  ZINC001173835973   -0.6900
     11 C11        -8.7102    2.0185   55.4911 C.ar    1  ZINC001173835973    0.0400
     12 C12        -7.5111    2.6197   55.2449 C.ar    1  ZINC001173835973    0.2400
     13 N13        -6.9162    3.4129   56.2326 N.pl3   1  ZINC001173835973   -0.8600
     14 C14        -6.8436    2.4418   53.9600 C.ar    1  ZINC001173835973   -0.1100
     15 C15        -5.6084    3.0579   53.7007 C.ar    1  ZINC001173835973   -0.0600
     16 C16        -5.0275    2.8560   52.4781 C.ar    1  ZINC001173835973   -0.1700
     17 C17        -5.6632    2.0580   51.5343 C.ar    1  ZINC001173835973    0.1200
     18 N18        -6.8185    1.4852   51.7846 N.ar    1  ZINC001173835973   -0.4400
     19 C19        -7.4329    1.6437   52.9548 C.ar    1  ZINC001173835973    0.1900
     20 C20        -8.7234    0.9968   53.2197 C.ar    1  ZINC001173835973    0.1300
     21 N21        -9.3077    0.2376   52.2956 N.ar    1  ZINC001173835973   -0.4400
     22 C22       -10.4624   -0.3474   52.5193 C.ar    1  ZINC001173835973    0.1000
     23 C23       -11.1287   -0.2019   53.7300 C.ar    1  ZINC001173835973   -0.1500
     24 C24       -10.5796    0.5663   54.7210 C.ar    1  ZINC001173835973   -0.0700
     25 C25        -9.3423    1.1833   54.4755 C.ar    1  ZINC001173835973   -0.0400
     26 C26       -10.4008    0.6767   58.2676 C.ar    1  ZINC001173835973   -0.1900
     27 H27       -14.2465    0.2084   61.3851 H       1  ZINC001173835973    0.1000
     28 H28       -14.1937   -1.1405   60.2250 H       1  ZINC001173835973    0.0900
     29 H29       -13.3606   -1.2809   61.7917 H       1  ZINC001173835973    0.0900
     30 H30       -11.6140   -1.7982   59.8056 H       1  ZINC001173835973    0.4100
     31 H31        -8.9855   -1.5256   60.4095 H       1  ZINC001173835973    0.1200
     32 H32        -6.9431   -0.5864   59.4103 H       1  ZINC001173835973    0.1200
     33 H33        -7.1028    1.1592   57.6851 H       1  ZINC001173835973    0.1200
     34 H34        -9.8331    3.0137   56.9077 H       1  ZINC001173835973    0.4000
     35 H35        -7.3148    3.4686   57.1151 H       1  ZINC001173835973    0.4100
     36 H36        -6.1053    3.9069   56.0345 H       1  ZINC001173835973    0.4000
     37 H37        -5.1296    3.6750   54.4467 H       1  ZINC001173835973    0.1400
     38 H38        -4.0780    3.3159   52.2470 H       1  ZINC001173835973    0.1400
     39 H39        -5.1965    1.9054   50.5724 H       1  ZINC001173835973    0.1700
     40 H40       -10.9045   -0.9554   51.7438 H       1  ZINC001173835973    0.1600
     41 H41       -12.0773   -0.6932   53.8886 H       1  ZINC001173835973    0.1400
     42 H42       -11.0829    0.6913   55.6684 H       1  ZINC001173835973    0.1400
     43 H43       -11.3696    1.0315   57.9486 H       1  ZINC001173835973    0.1400
@<TRIPOS>BOND
     1     1     2    1
     2     1    27    1
     3     1    28    1
     4     1    29    1
     5     2     3    2
     6     2     4   am
     7     4     5    1
     8     4    30    1
     9     5    26   ar
    10     5     6   ar
    11     6     7   ar
    12     6    31    1
    13     7     8   ar
    14     7    32    1
    15     8     9   ar
    16     8    33    1
    17     9    10    1
    18     9    26   ar
    19    10    11    1
    20    10    34    1
    21    11    25   ar
    22    11    12   ar
    23    12    13    1
    24    12    14   ar
    25    13    35    1
    26    13    36    1
    27    14    19   ar
    28    14    15   ar
    29    15    16   ar
    30    15    37    1
    31    16    17   ar
    32    16    38    1
    33    17    18   ar
    34    17    39    1
    35    18    19   ar
    36    19    20   ar
    37    20    25   ar
    38    20    21   ar
    39    21    22   ar
    40    22    23   ar
    41    22    40    1
    42    23    24   ar
    43    23    41    1
    44    24    25   ar
    45    24    42    1
    46    26    43    1
@<TRIPOS>SUBSTRUCTURE
     1 ZINC001173835973        1 TEMP              0 ****  ****    0 ROOT


##########                                Name:    ZINC000864477301
##########                DOCK_Rotatable_Bonds:                   6
##########                         Heavy_Atoms:                  26
##########                    Molecular_Weight:             393.891
##########                DOCK_Rotatable_Bonds:                   6
##########                       Formal_Charge:         -0.00999978
##########                     HBond_Acceptors:                   7
##########                        HBond_Donors:                   1
##########                         Heavy_Atoms:                  26
##########                          Grid_Score:          -22.337238
##########                     Grid_vdw_energy:          -20.855604
##########                      Grid_es_energy:           -1.481634
##########           Internal_energy_repulsive:            7.213482

@<TRIPOS>MOLECULE
ZINC000864477301
 46 47 1 0 0
SMALL
USER_CHARGES


@<TRIPOS>ATOM
      1 C1        -11.4689   -0.5843   60.8334 C.3     1  ZINC000864477301   -0.1500
      2 C2        -12.9857   -0.4949   61.0122 C.3     1  ZINC000864477301    0.0600
      3 O3        -13.5901   -1.7683   60.6634 O.3     1  ZINC000864477301   -0.3500
      4 C4        -14.6501   -1.7351   59.8328 C.2     1  ZINC000864477301    0.5100
      5 O5        -15.6919   -1.2282   60.1976 O.2     1  ZINC000864477301   -0.5000
      6 C6        -14.5456   -2.3153   58.4783 C.ar    1  ZINC000864477301   -0.1400
      7 C7        -15.4094   -3.3394   58.0856 C.ar    1  ZINC000864477301   -0.0300
      8 C8        -15.3062   -3.8767   56.8191 C.ar    1  ZINC000864477301   -0.1500
      9 C9        -14.3493   -3.4034   55.9392 C.ar    1  ZINC000864477301   -0.0100
     10 C10       -13.4899   -2.3885   56.3220 C.ar    1  ZINC000864477301   -0.4900
     11 S11       -12.2748   -1.7933   55.1933 S.o     1  ZINC000864477301    1.3800
     12 O12       -11.2857   -1.2403   56.0507 O.2     1  ZINC000864477301   -0.8100
     13 C13       -13.1420   -0.4552   54.3284 C.3     1  ZINC000864477301   -0.4600
     14 H14       -13.9687   -0.8708   53.7523 H       1  ZINC000864477301    0.1400
     15 C15       -13.6849    0.5451   55.3509 C.3     1  ZINC000864477301   -0.1400
     16 C16       -12.1846    0.2458   53.3994 C.2     1  ZINC000864477301    0.5500
     17 O17       -12.2201    0.0193   52.2083 O.2     1  ZINC000864477301   -0.5100
     18 N18       -11.2890    1.1242   53.8919 N.am    1  ZINC000864477301   -0.6800
     19 C19       -10.3997    1.7752   53.0289 C.ar    1  ZINC000864477301    0.1400
     20 C20        -9.1836    1.1868   52.7099 C.ar    1  ZINC000864477301   -0.0600
     21 C21        -8.8188   -0.1542   53.2926 C.3     1  ZINC000864477301   -0.1100
     22 C22        -8.3081    1.8315   51.8574 C.ar    1  ZINC000864477301   -0.1100
     23 C23        -8.6416    3.0616   51.3218 C.ar    1  ZINC000864477301   -0.1000
     24 C24        -9.8522    3.6515   51.6374 C.ar    1  ZINC000864477301   -0.1100
     25 C25       -10.7349    3.0096   52.4847 C.ar    1  ZINC000864477301   -0.0200
     26 Cl26      -12.2545    3.7499   52.8802 Cl      1  ZINC000864477301   -0.0600
     27 C27       -13.5861   -1.8380   57.5829 C.ar    1  ZINC000864477301    0.0100
     28 H28       -11.0718   -1.3648   61.4824 H       1  ZINC000864477301    0.0700
     29 H29       -11.2389   -0.8233   59.7950 H       1  ZINC000864477301    0.0700
     30 H30       -11.0152    0.3716   61.0952 H       1  ZINC000864477301    0.0800
     31 H31       -13.2157   -0.2559   62.0505 H       1  ZINC000864477301    0.0700
     32 H32       -13.3828    0.2856   60.3632 H       1  ZINC000864477301    0.0700
     33 H33       -16.1564   -3.7103   58.7718 H       1  ZINC000864477301    0.1400
     34 H34       -15.9738   -4.6690   56.5140 H       1  ZINC000864477301    0.1400
     35 H35       -14.2724   -3.8282   54.9493 H       1  ZINC000864477301    0.1500
     36 H36       -14.2060    1.3492   54.8312 H       1  ZINC000864477301    0.0700
     37 H37       -14.3774    0.0382   56.0229 H       1  ZINC000864477301    0.0700
     38 H38       -12.8583    0.9608   55.9271 H       1  ZINC000864477301    0.0700
     39 H39       -11.2605    1.3052   54.8444 H       1  ZINC000864477301    0.4100
     40 H40        -9.1681   -0.9457   52.6295 H       1  ZINC000864477301    0.0800
     41 H41        -7.7362   -0.2214   53.3998 H       1  ZINC000864477301    0.0700
     42 H42        -9.2883   -0.2656   54.2700 H       1  ZINC000864477301    0.0700
     43 H43        -7.3617    1.3742   51.6095 H       1  ZINC000864477301    0.1400
     44 H44        -7.9553    3.5632   50.6558 H       1  ZINC000864477301    0.1400
     45 H45       -10.1096    4.6128   51.2175 H       1  ZINC000864477301    0.1400
     46 H46       -12.9150   -1.0458   57.8803 H       1  ZINC000864477301    0.1400
@<TRIPOS>BOND
     1     1     2    1
     2     1    28    1
     3     1    29    1
     4     1    30    1
     5     2     3    1
     6     2    31    1
     7     2    32    1
     8     3     4    1
     9     4     5    2
    10     4     6    1
    11     6    27   ar
    12     6     7   ar
    13     7     8   ar
    14     7    33    1
    15     8     9   ar
    16     8    34    1
    17     9    10   ar
    18     9    35    1
    19    10    11    1
    20    10    27   ar
    21    11    12    2
    22    11    13    1
    23    13    14    1
    24    13    15    1
    25    13    16    1
    26    15    36    1
    27    15    37    1
    28    15    38    1
    29    16    17    2
    30    16    18   am
    31    18    19    1
    32    18    39    1
    33    19    25   ar
    34    19    20   ar
    35    20    21    1
    36    20    22   ar
    37    21    40    1
    38    21    41    1
    39    21    42    1
    40    22    23   ar
    41    22    43    1
    42    23    24   ar
    43    23    44    1
    44    24    25   ar
    45    24    45    1
    46    25    26    1
    47    27    46    1
@<TRIPOS>SUBSTRUCTURE
     1 ZINC000864477301        1 TEMP              0 ****  ****    0 ROOT


##########                                Name:    ZINC000950547210
##########                DOCK_Rotatable_Bonds:                   5
##########                         Heavy_Atoms:                  25
##########                    Molecular_Weight:              346.47
##########                DOCK_Rotatable_Bonds:                   5
##########                       Formal_Charge:         5.58794e-07
##########                     HBond_Acceptors:                   5
##########                        HBond_Donors:                   1
##########                         Heavy_Atoms:                  25
##########                          Grid_Score:          -22.323021
##########                     Grid_vdw_energy:          -22.939651
##########                      Grid_es_energy:            0.616630
##########           Internal_energy_repulsive:           20.412683

@<TRIPOS>MOLECULE
ZINC000950547210
 55 58 1 0 0
SMALL
USER_CHARGES


@<TRIPOS>ATOM
      1 O1         -2.8777    1.9727   50.3330 O.2     1  ZINC000950547210   -0.5200
      2 C2         -2.1253    2.9085   50.1624 C.2     1  ZINC000950547210    0.5200
      3 N3         -2.0249    3.8720   51.0993 N.am    1  ZINC000950547210   -0.7300
      4 C4         -2.8290    3.7920   52.3213 C.3     1  ZINC000950547210    0.1300
      5 H5         -2.7416    2.7935   52.7496 H       1  ZINC000950547210    0.0900
      6 C6         -2.3275    4.8267   53.3315 C.3     1  ZINC000950547210   -0.1300
      7 C7         -3.1455    4.7217   54.6206 C.3     1  ZINC000950547210   -0.1300
      8 C8         -4.6164    5.0196   54.3130 C.3     1  ZINC000950547210    0.1000
      9 N9         -5.0657    4.1238   53.2386 N.am    1  ZINC000950547210   -0.6100
     10 C10        -6.1631    3.3576   53.3973 C.2     1  ZINC000950547210    0.5600
     11 O11        -6.5247    2.6201   52.5004 O.2     1  ZINC000950547210   -0.5200
     12 C12        -6.9235    3.4134   54.6553 C.2     1  ZINC000950547210   -0.1400
     13 C13        -7.7796    4.4022   54.8399 C.2     1  ZINC000950547210   -0.1500
     14 C14        -8.5924    4.5447   56.0957 C.3     1  ZINC000950547210    0.0900
     15 O15        -8.5742    3.3214   56.8338 O.3     1  ZINC000950547210   -0.3700
     16 C16        -7.2524    2.8074   57.0374 C.3     1  ZINC000950547210    0.0600
     17 C17        -6.7039    2.3391   55.6850 C.3     1  ZINC000950547210   -0.1100
     18 C18        -4.2964    4.0786   51.9876 C.3     1  ZINC000950547210    0.1000
     19 C19        -1.2981    2.9908   48.9054 C.3     1  ZINC000950547210   -0.1000
     20 H20        -1.8808    3.4682   48.1175 H       1  ZINC000950547210    0.1000
     21 C21        -0.9011    1.5809   48.4629 C.3     1  ZINC000950547210   -0.1100
     22 C22         0.6242    1.4641   48.4399 C.3     1  ZINC000950547210   -0.0900
     23 C23         1.1994    2.4875   47.4587 C.3     1  ZINC000950547210   -0.1100
     24 C24         0.8024    3.8972   47.9012 C.3     1  ZINC000950547210   -0.1100
     25 C25        -0.0374    3.8138   49.1774 C.3     1  ZINC000950547210   -0.0600
     26 C26         0.7805    3.1436   50.2832 C.3     1  ZINC000950547210   -0.1300
     27 C27         1.1775    1.7337   49.8407 C.3     1  ZINC000950547210   -0.1200
     28 H28        -1.4202    4.6185   50.9646 H       1  ZINC000950547210    0.4000
     29 H29        -1.2766    4.6392   53.5519 H       1  ZINC000950547210    0.0800
     30 H30        -2.4376    5.8266   52.9119 H       1  ZINC000950547210    0.0700
     31 H31        -3.0558    3.7144   55.0274 H       1  ZINC000950547210    0.0700
     32 H32        -2.7726    5.4428   55.3478 H       1  ZINC000950547210    0.0900
     33 H33        -5.2181    4.8498   55.2059 H       1  ZINC000950547210    0.0900
     34 H34        -4.7199    6.0561   53.9918 H       1  ZINC000950547210    0.0700
     35 H35        -7.8997    5.1373   54.0578 H       1  ZINC000950547210    0.1200
     36 H36        -8.1739    5.3430   56.7086 H       1  ZINC000950547210    0.0700
     37 H37        -9.6208    4.7938   55.8341 H       1  ZINC000950547210    0.1100
     38 H38        -6.6134    3.5909   57.4446 H       1  ZINC000950547210    0.0600
     39 H39        -7.2894    1.9649   57.7281 H       1  ZINC000950547210    0.1000
     40 H40        -7.2170    1.4266   55.3815 H       1  ZINC000950547210    0.0900
     41 H41        -5.6357    2.1418   55.7752 H       1  ZINC000950547210    0.0900
     42 H42        -4.3733    5.0382   51.4764 H       1  ZINC000950547210    0.0700
     43 H43        -4.6873    3.2885   51.3466 H       1  ZINC000950547210    0.1000
     44 H44        -1.3109    0.8519   49.1619 H       1  ZINC000950547210    0.0700
     45 H45        -1.2953    1.3888   47.4650 H       1  ZINC000950547210    0.0700
     46 H46         0.9070    0.4597   48.1248 H       1  ZINC000950547210    0.0700
     47 H47         2.2861    2.4043   47.4423 H       1  ZINC000950547210    0.0600
     48 H48         0.8052    2.2954   46.4608 H       1  ZINC000950547210    0.0600
     49 H49         1.7007    4.4836   48.0950 H       1  ZINC000950547210    0.0700
     50 H50         0.2198    4.3747   47.1134 H       1  ZINC000950547210    0.0600
     51 H51        -0.3201    4.8181   49.4925 H       1  ZINC000950547210    0.0800
     52 H52         1.6788    3.7299   50.4770 H       1  ZINC000950547210    0.0600
     53 H53         0.1823    3.0841   51.1924 H       1  ZINC000950547210    0.0900
     54 H54         0.7678    1.0047   50.5397 H       1  ZINC000950547210    0.0600
     55 H55         2.2642    1.6505   49.8243 H       1  ZINC000950547210    0.0600
@<TRIPOS>BOND
     1     1     2    2
     2     2     3   am
     3     2    19    1
     4     3     4    1
     5     3    28    1
     6     4     5    1
     7     4    18    1
     8     4     6    1
     9     6     7    1
    10     6    29    1
    11     6    30    1
    12     7     8    1
    13     7    31    1
    14     7    32    1
    15     8     9    1
    16     8    33    1
    17     8    34    1
    18     9    10   am
    19     9    18    1
    20    10    11    2
    21    10    12    1
    22    12    17    1
    23    12    13    2
    24    13    14    1
    25    13    35    1
    26    14    15    1
    27    14    36    1
    28    14    37    1
    29    15    16    1
    30    16    17    1
    31    16    38    1
    32    16    39    1
    33    17    40    1
    34    17    41    1
    35    18    42    1
    36    18    43    1
    37    19    20    1
    38    19    25    1
    39    19    21    1
    40    21    22    1
    41    21    44    1
    42    21    45    1
    43    22    27    1
    44    22    23    1
    45    22    46    1
    46    23    24    1
    47    23    47    1
    48    23    48    1
    49    24    25    1
    50    24    49    1
    51    24    50    1
    52    25    26    1
    53    25    51    1
    54    26    27    1
    55    26    52    1
    56    26    53    1
    57    27    54    1
    58    27    55    1
@<TRIPOS>SUBSTRUCTURE
     1 ZINC000950547210        1 TEMP              0 ****  ****    0 ROOT


##########                                Name:    ZINC000616491533
##########                DOCK_Rotatable_Bonds:                   4
##########                         Heavy_Atoms:                  27
##########                    Molecular_Weight:             375.418
##########                DOCK_Rotatable_Bonds:                   4
##########                       Formal_Charge:           0.0299996
##########                     HBond_Acceptors:                   7
##########                        HBond_Donors:                   0
##########                         Heavy_Atoms:                  27
##########                          Grid_Score:          -22.262548
##########                     Grid_vdw_energy:          -22.452278
##########                      Grid_es_energy:            0.189729
##########           Internal_energy_repulsive:            9.453863

@<TRIPOS>MOLECULE
ZINC000616491533
 50 53 1 0 0
SMALL
USER_CHARGES


@<TRIPOS>ATOM
      1 C1        -14.2239    0.3448   53.4496 C.3     1  ZINC000616491533   -0.1700
      2 C2        -13.3570    1.3942   54.1482 C.3     1  ZINC000616491533    0.1400
      3 H3        -13.6898    2.3944   53.8704 H       1  ZINC000616491533    0.0800
      4 C4        -13.4494    1.2165   55.6799 C.3     1  ZINC000616491533   -0.1200
      5 C5        -12.1789    0.4052   56.0089 C.3     1  ZINC000616491533   -0.0700
      6 C6        -11.1593    0.9518   54.9915 C.3     1  ZINC000616491533    0.0900
      7 N7        -11.9478    1.2125   53.7679 N.am    1  ZINC000616491533   -0.6100
      8 C8        -11.4560    1.2703   52.5144 C.2     1  ZINC000616491533    0.6100
      9 O9        -12.2010    1.4894   51.5785 O.2     1  ZINC000616491533   -0.5200
     10 C10       -10.0151    1.0681   52.2778 C.2     1  ZINC000616491533   -0.2400
     11 C11        -9.0394    2.0448   52.2793 C.2     1  ZINC000616491533    0.0700
     12 C12        -9.2505    3.5168   52.5231 C.3     1  ZINC000616491533    0.3400
     13 F13        -9.9266    4.0776   51.4342 F       1  ZINC000616491533   -0.1900
     14 F14       -10.0102    3.6928   53.6846 F       1  ZINC000616491533   -0.1600
     15 N15        -7.8651    1.4400   52.0234 N.pl3   1  ZINC000616491533   -0.2900
     16 C16        -6.6185    2.0747   51.9366 C.ar    1  ZINC000616491533    0.1300
     17 C17        -6.0837    2.7127   53.0478 C.ar    1  ZINC000616491533   -0.1000
     18 C18        -4.8551    3.3372   52.9591 C.ar    1  ZINC000616491533   -0.1000
     19 C19        -4.1578    3.3280   51.7650 C.ar    1  ZINC000616491533   -0.1000
     20 C20        -4.6877    2.6936   50.6565 C.ar    1  ZINC000616491533   -0.1000
     21 C21        -5.9131    2.0619   50.7407 C.ar    1  ZINC000616491533   -0.0900
     22 N22        -8.0988    0.0702   51.8587 N.2     1  ZINC000616491533   -0.2600
     23 C23        -9.3733   -0.1629   52.0131 C.2     1  ZINC000616491533    0.0700
     24 C24       -11.7196    0.6807   57.4334 C.3     1  ZINC000616491533   -0.1400
     25 C25       -10.4852   -0.1743   57.7406 C.3     1  ZINC000616491533    0.0600
     26 O26       -10.7966   -1.5509   57.5153 O.3     1  ZINC000616491533   -0.3800
     27 C27       -11.1538   -1.8593   56.1663 C.3     1  ZINC000616491533    0.0600
     28 C28       -12.4186   -1.0811   55.7867 C.3     1  ZINC000616491533   -0.1500
     29 H29       -13.8777   -0.6521   53.7219 H       1  ZINC000616491533    0.0600
     30 H30       -15.2618    0.4663   53.7593 H       1  ZINC000616491533    0.0600
     31 H31       -14.1496    0.4729   52.3696 H       1  ZINC000616491533    0.0800
     32 H32       -13.4306    2.1836   56.1824 H       1  ZINC000616491533    0.0800
     33 H33       -14.3451    0.6573   55.9503 H       1  ZINC000616491533    0.0900
     34 H34       -10.7146    1.8765   55.3591 H       1  ZINC000616491533    0.0800
     35 H35       -10.3854    0.2099   54.7936 H       1  ZINC000616491533    0.0800
     36 H36        -8.2846    4.0075   52.6428 H       1  ZINC000616491533    0.1400
     37 H37        -6.6281    2.7208   53.9805 H       1  ZINC000616491533    0.1300
     38 H38        -4.4386    3.8336   53.8232 H       1  ZINC000616491533    0.1400
     39 H39        -3.1976    3.8178   51.6979 H       1  ZINC000616491533    0.1300
     40 H40        -4.1409    2.6880   49.7253 H       1  ZINC000616491533    0.1400
     41 H41        -6.3266    1.5665   49.8746 H       1  ZINC000616491533    0.1300
     42 H42        -9.8545   -1.1273   51.9444 H       1  ZINC000616491533    0.2100
     43 H43       -11.4663    1.7359   57.5365 H       1  ZINC000616491533    0.0800
     44 H44       -12.5198    0.4281   58.1291 H       1  ZINC000616491533    0.0800
     45 H45        -9.6642    0.1244   57.0888 H       1  ZINC000616491533    0.0500
     46 H46       -10.1943   -0.0327   58.7815 H       1  ZINC000616491533    0.1000
     47 H47       -10.3388   -1.5760   55.5002 H       1  ZINC000616491533    0.0500
     48 H48       -11.3437   -2.9287   56.0755 H       1  ZINC000616491533    0.1000
     49 H49       -13.2502   -1.4126   56.4086 H       1  ZINC000616491533    0.0800
     50 H50       -12.6543   -1.2589   54.7376 H       1  ZINC000616491533    0.0800
@<TRIPOS>BOND
     1     1     2    1
     2     1    29    1
     3     1    30    1
     4     1    31    1
     5     2     3    1
     6     2     7    1
     7     2     4    1
     8     4     5    1
     9     4    32    1
    10     4    33    1
    11     5    28    1
    12     5     6    1
    13     5    24    1
    14     6     7    1
    15     6    34    1
    16     6    35    1
    17     7     8   am
    18     8     9    2
    19     8    10    1
    20    10    23    1
    21    10    11    2
    22    11    12    1
    23    11    15    1
    24    12    13    1
    25    12    14    1
    26    12    36    1
    27    15    16    1
    28    15    22    1
    29    16    21   ar
    30    16    17   ar
    31    17    18   ar
    32    17    37    1
    33    18    19   ar
    34    18    38    1
    35    19    20   ar
    36    19    39    1
    37    20    21   ar
    38    20    40    1
    39    21    41    1
    40    22    23    2
    41    23    42    1
    42    24    25    1
    43    24    43    1
    44    24    44    1
    45    25    26    1
    46    25    45    1
    47    25    46    1
    48    26    27    1
    49    27    28    1
    50    27    47    1
    51    27    48    1
    52    28    49    1
    53    28    50    1
@<TRIPOS>SUBSTRUCTURE
     1 ZINC000616491533        1 TEMP              0 ****  ****    0 ROOT


##########                                Name:    ZINC000541315701
##########                DOCK_Rotatable_Bonds:                   4
##########                         Heavy_Atoms:                  25
##########                    Molecular_Weight:             422.709
##########                DOCK_Rotatable_Bonds:                   4
##########                       Formal_Charge:           0.0300003
##########                     HBond_Acceptors:                   6
##########                        HBond_Donors:                   0
##########                         Heavy_Atoms:                  25
##########                          Grid_Score:          -21.893034
##########                     Grid_vdw_energy:          -21.973394
##########                      Grid_es_energy:            0.080361
##########           Internal_energy_repulsive:           16.881315

@<TRIPOS>MOLECULE
ZINC000541315701
 42 44 1 0 0
SMALL
USER_CHARGES


@<TRIPOS>ATOM
      1 C1        -14.6435   -2.7368   60.6641 C.3     1  ZINC000541315701    0.0800
      2 N2        -13.8424   -1.5913   60.2254 N.am    1  ZINC000541315701   -0.5700
      3 C3        -12.5363   -1.5187   60.5497 C.2     1  ZINC000541315701    0.5400
      4 O4        -12.0241   -2.4015   61.2047 O.2     1  ZINC000541315701   -0.5000
      5 C5        -11.7123   -0.3403   60.0985 C.3     1  ZINC000541315701   -0.1100
      6 H6        -12.3136    0.3497   59.5065 H       1  ZINC000541315701    0.1300
      7 C7        -11.0705    0.3810   61.3062 C.3     1  ZINC000541315701   -0.1500
      8 C8         -9.7036   -0.2545   61.4342 C.2     1  ZINC000541315701    0.5200
      9 O9         -8.9910   -0.1783   62.4127 O.2     1  ZINC000541315701   -0.5200
     10 N10        -9.3938   -0.9161   60.3059 N.am    1  ZINC000541315701   -0.6100
     11 C11        -8.1453   -1.6532   60.0961 C.3     1  ZINC000541315701    0.0900
     12 C12       -10.4678   -0.8052   59.3103 C.3     1  ZINC000541315701    0.1900
     13 H13       -10.6543   -1.7743   58.8473 H       1  ZINC000541315701    0.1100
     14 C14       -10.1024    0.2119   58.2601 C.ar    1  ZINC000541315701   -0.0900
     15 C15       -10.5125    0.0326   56.9524 C.ar    1  ZINC000541315701   -0.1000
     16 C16       -10.1781    0.9656   55.9883 C.ar    1  ZINC000541315701   -0.1000
     17 C17        -9.4332    2.0777   56.3317 C.ar    1  ZINC000541315701   -0.1000
     18 C18        -9.0224    2.2578   57.6407 C.ar    1  ZINC000541315701   -0.0300
     19 Cl19       -8.0872    3.6550   58.0729 Cl      1  ZINC000541315701   -0.0600
     20 C20        -9.3621    1.3269   58.6059 C.ar    1  ZINC000541315701   -0.0900
     21 C21       -14.4313   -0.5762   59.4724 C.ar    1  ZINC000541315701    0.3800
     22 N22       -14.8937    0.5056   60.0783 N.ar    1  ZINC000541315701   -0.4700
     23 C23       -15.4576    1.4893   59.4036 C.ar    1  ZINC000541315701    0.1300
     24 C24       -15.5861    1.4240   58.0305 C.ar    1  ZINC000541315701   -0.1600
     25 C25       -15.1140    0.3062   57.3559 C.ar    1  ZINC000541315701   -0.0400
     26 C26       -14.5225   -0.7072   58.0904 C.ar    1  ZINC000541315701   -0.1300
     27 Br27      -13.8597   -2.2543   57.2285 Br      1  ZINC000541315701   -0.0200
     28 H28       -14.2927   -3.0731   61.6397 H       1  ZINC000541315701    0.0900
     29 H29       -15.6904   -2.4418   60.7362 H       1  ZINC000541315701    0.0800
     30 H30       -14.5434   -3.5477   59.9426 H       1  ZINC000541315701    0.0700
     31 H31       -10.9777    1.4487   61.1076 H       1  ZINC000541315701    0.1200
     32 H32       -11.6570    0.2094   62.2088 H       1  ZINC000541315701    0.1100
     33 H33        -7.5237   -1.5763   60.9882 H       1  ZINC000541315701    0.0900
     34 H34        -8.3708   -2.7014   59.8996 H       1  ZINC000541315701    0.0700
     35 H35        -7.6124   -1.2303   59.2444 H       1  ZINC000541315701    0.0600
     36 H36       -11.0941   -0.8369   56.6834 H       1  ZINC000541315701    0.1300
     37 H37       -10.4988    0.8249   54.9666 H       1  ZINC000541315701    0.1400
     38 H38        -9.1715    2.8061   55.5784 H       1  ZINC000541315701    0.1400
     39 H39        -9.0418    1.4669   59.6277 H       1  ZINC000541315701    0.1400
     40 H40       -15.8238    2.3569   59.9325 H       1  ZINC000541315701    0.1700
     41 H41       -16.0493    2.2342   57.4868 H       1  ZINC000541315701    0.1500
     42 H42       -15.2024    0.2309   56.2822 H       1  ZINC000541315701    0.1500
@<TRIPOS>BOND
     1     1     2    1
     2     1    28    1
     3     1    29    1
     4     1    30    1
     5     2     3   am
     6     2    21    1
     7     3     4    2
     8     3     5    1
     9     5     6    1
    10     5    12    1
    11     5     7    1
    12     7     8    1
    13     7    31    1
    14     7    32    1
    15     8     9    2
    16     8    10   am
    17    10    11    1
    18    10    12    1
    19    11    33    1
    20    11    34    1
    21    11    35    1
    22    12    13    1
    23    12    14    1
    24    14    20   ar
    25    14    15   ar
    26    15    16   ar
    27    15    36    1
    28    16    17   ar
    29    16    37    1
    30    17    18   ar
    31    17    38    1
    32    18    19    1
    33    18    20   ar
    34    20    39    1
    35    21    26   ar
    36    21    22   ar
    37    22    23   ar
    38    23    24   ar
    39    23    40    1
    40    24    25   ar
    41    24    41    1
    42    25    26   ar
    43    25    42    1
    44    26    27    1
@<TRIPOS>SUBSTRUCTURE
     1 ZINC000541315701        1 TEMP              0 ****  ****    0 ROOT


##########                                Name:    ZINC000550782577
##########                DOCK_Rotatable_Bonds:                   5
##########                         Heavy_Atoms:                  25
##########                    Molecular_Weight:              338.45
##########                DOCK_Rotatable_Bonds:                   5
##########                       Formal_Charge:         -0.00999954
##########                     HBond_Acceptors:                   4
##########                        HBond_Donors:                   0
##########                         Heavy_Atoms:                  25
##########                          Grid_Score:          -21.600153
##########                     Grid_vdw_energy:          -21.521238
##########                      Grid_es_energy:           -0.078916
##########           Internal_energy_repulsive:           19.132742

@<TRIPOS>MOLECULE
ZINC000550782577
 51 53 1 0 0
SMALL
USER_CHARGES


@<TRIPOS>ATOM
      1 C1        -12.0763    2.8220   52.0928 C.3     1  ZINC000550782577    0.0700
      2 N2        -11.2885    2.3090   53.2164 N.am    1  ZINC000550782577   -0.5900
      3 C3        -11.8330    2.2447   54.4475 C.2     1  ZINC000550782577    0.5800
      4 O4        -12.9777    2.6122   54.6258 O.2     1  ZINC000550782577   -0.5400
      5 C5        -11.0373    1.7267   55.5820 C.ar    1  ZINC000550782577    0.0300
      6 C6        -10.2440    2.6008   56.3242 C.ar    1  ZINC000550782577   -0.0600
      7 C7         -9.5043    2.1047   57.3830 C.ar    1  ZINC000550782577   -0.1200
      8 C8         -9.5821    0.7443   57.6665 C.ar    1  ZINC000550782577    0.1100
      9 O9         -8.8734    0.2159   58.6964 O.3     1  ZINC000550782577   -0.3000
     10 C10        -9.6092   -0.1747   59.8574 C.3     1  ZINC000550782577    0.1000
     11 C11       -10.9888    0.4861   59.8330 C.3     1  ZINC000550782577   -0.2000
     12 C12        -9.7725   -1.6960   59.8697 C.3     1  ZINC000550782577   -0.1400
     13 C13        -8.8540    0.2673   61.1124 C.3     1  ZINC000550782577   -0.2000
     14 C14       -10.3961   -0.0687   56.8813 C.ar    1  ZINC000550782577   -0.0100
     15 N15       -11.0901    0.4349   55.8863 N.ar    1  ZINC000550782577   -0.4100
     16 C16        -9.9086    1.8660   53.0017 C.3     1  ZINC000550782577    0.1400
     17 H17        -9.4725    1.5516   53.9498 H       1  ZINC000550782577    0.1100
     18 C18        -9.8903    0.6956   52.0115 C.3     1  ZINC000550782577   -0.1300
     19 C19        -8.4825    0.1035   51.9911 C.3     1  ZINC000550782577   -0.0800
     20 C20        -7.4566    1.1847   51.7731 C.ar    1  ZINC000550782577   -0.0800
     21 C21        -6.1902    0.7993   51.3535 C.ar    1  ZINC000550782577   -0.1200
     22 C22        -5.2049    1.7415   51.1416 C.ar    1  ZINC000550782577   -0.1200
     23 C23        -5.4794    3.0802   51.3492 C.ar    1  ZINC000550782577   -0.1200
     24 C24        -6.7377    3.4654   51.7639 C.ar    1  ZINC000550782577   -0.1200
     25 C25        -7.7319    2.5189   51.9742 C.ar    1  ZINC000550782577   -0.0700
     26 C26        -9.0869    3.0105   52.4119 C.3     1  ZINC000550782577   -0.0900
     27 H27       -12.0278    3.9109   52.0822 H       1  ZINC000550782577    0.0600
     28 H28       -11.6737    2.4312   51.1583 H       1  ZINC000550782577    0.0600
     29 H29       -13.1136    2.5056   52.2019 H       1  ZINC000550782577    0.1100
     30 H30       -10.2073    3.6511   56.0757 H       1  ZINC000550782577    0.1600
     31 H31        -8.8807    2.7579   57.9755 H       1  ZINC000550782577    0.1500
     32 H32       -11.6652   -0.1073   59.2178 H       1  ZINC000550782577    0.0700
     33 H33       -11.3804    0.5472   60.8484 H       1  ZINC000550782577    0.0800
     34 H34       -10.9039    1.4895   59.4155 H       1  ZINC000550782577    0.0800
     35 H35        -8.7896   -2.1668   59.8870 H       1  ZINC000550782577    0.0700
     36 H36       -10.3339   -1.9939   60.7553 H       1  ZINC000550782577    0.0800
     37 H37       -10.3105   -2.0109   58.9755 H       1  ZINC000550782577    0.0700
     38 H38        -8.7417    1.3514   61.1060 H       1  ZINC000550782577    0.0800
     39 H39        -9.4131   -0.0348   61.9981 H       1  ZINC000550782577    0.0800
     40 H40        -7.8693   -0.1999   61.1274 H       1  ZINC000550782577    0.0700
     41 H41       -10.4609   -1.1251   57.0961 H       1  ZINC000550782577    0.1900
     42 H42       -10.6038   -0.0649   52.3289 H       1  ZINC000550782577    0.0700
     43 H43       -10.1527    1.0530   51.0158 H       1  ZINC000550782577    0.0700
     44 H44        -8.2869   -0.3912   52.9425 H       1  ZINC000550782577    0.0800
     45 H45        -8.4116   -0.6272   51.1854 H       1  ZINC000550782577    0.0800
     46 H46        -5.9748   -0.2466   51.1920 H       1  ZINC000550782577    0.1200
     47 H47        -4.2224    1.4342   50.8150 H       1  ZINC000550782577    0.1200
     48 H48        -4.7114    3.8223   51.1878 H       1  ZINC000550782577    0.1200
     49 H49        -6.9513    4.5116   51.9262 H       1  ZINC000550782577    0.1200
     50 H50        -9.6138    3.4251   51.5526 H       1  ZINC000550782577    0.0800
     51 H51        -8.9610    3.7884   53.1650 H       1  ZINC000550782577    0.0800
@<TRIPOS>BOND
     1     1     2    1
     2     1    27    1
     3     1    28    1
     4     1    29    1
     5     2     3   am
     6     2    16    1
     7     3     4    2
     8     3     5    1
     9     5    15   ar
    10     5     6   ar
    11     6     7   ar
    12     6    30    1
    13     7     8   ar
    14     7    31    1
    15     8     9    1
    16     8    14   ar
    17     9    10    1
    18    10    11    1
    19    10    12    1
    20    10    13    1
    21    11    32    1
    22    11    33    1
    23    11    34    1
    24    12    35    1
    25    12    36    1
    26    12    37    1
    27    13    38    1
    28    13    39    1
    29    13    40    1
    30    14    15   ar
    31    14    41    1
    32    16    17    1
    33    16    26    1
    34    16    18    1
    35    18    19    1
    36    18    42    1
    37    18    43    1
    38    19    20    1
    39    19    44    1
    40    19    45    1
    41    20    25   ar
    42    20    21   ar
    43    21    22   ar
    44    21    46    1
    45    22    23   ar
    46    22    47    1
    47    23    24   ar
    48    23    48    1
    49    24    25   ar
    50    24    49    1
    51    25    26    1
    52    26    50    1
    53    26    51    1
@<TRIPOS>SUBSTRUCTURE
     1 ZINC000550782577        1 TEMP              0 ****  ****    0 ROOT


##########                                Name:    ZINC000331626032
##########                DOCK_Rotatable_Bonds:                   5
##########                         Heavy_Atoms:                  25
##########                    Molecular_Weight:              339.44
##########                DOCK_Rotatable_Bonds:                   5
##########                       Formal_Charge:        -2.16067e-07
##########                     HBond_Acceptors:                   6
##########                        HBond_Donors:                   2
##########                         Heavy_Atoms:                  25
##########                          Grid_Score:          -21.398724
##########                     Grid_vdw_energy:          -20.056082
##########                      Grid_es_energy:           -1.342642
##########           Internal_energy_repulsive:          182.727005

@<TRIPOS>MOLECULE
ZINC000331626032
 50 52 1 0 0
SMALL
USER_CHARGES


@<TRIPOS>ATOM
      1 C1         -4.9625    5.5469   53.8715 C.3     1  ZINC000331626032   -0.2000
      2 C2         -5.0967    4.4063   54.8824 C.3     1  ZINC000331626032    0.0700
      3 H3         -4.7661    3.4741   54.4244 H       1  ZINC000331626032    0.1100
      4 C4         -4.2451    4.7023   56.0899 C.2     1  ZINC000331626032    0.5200
      5 O5         -4.3059    5.7902   56.6228 O.2     1  ZINC000331626032   -0.5000
      6 N6         -3.4160    3.7584   56.5776 N.am    1  ZINC000331626032   -0.5800
      7 C7         -3.3425    2.4445   55.9340 C.3     1  ZINC000331626032    0.0800
      8 C8         -2.6252    4.0334   57.6989 C.ar    1  ZINC000331626032    0.1400
      9 C9         -1.7652    3.0641   58.1984 C.ar    1  ZINC000331626032   -0.1000
     10 C10        -0.9860    3.3387   59.3052 C.ar    1  ZINC000331626032   -0.1100
     11 C11        -1.0619    4.5768   59.9161 C.ar    1  ZINC000331626032   -0.1200
     12 C12        -1.9175    5.5440   59.4213 C.ar    1  ZINC000331626032   -0.1100
     13 C13        -2.6944    5.2780   58.3109 C.ar    1  ZINC000331626032   -0.1200
     14 N14        -6.5014    4.2788   55.2932 N.3     1  ZINC000331626032   -0.5100
     15 C15        -7.3129    3.6936   54.2183 C.3     1  ZINC000331626032    0.0500
     16 C16        -8.7883    3.7103   54.6245 C.3     1  ZINC000331626032   -0.1100
     17 C17        -8.9659    2.9092   55.9172 C.3     1  ZINC000331626032   -0.1100
     18 C18        -8.0734    3.5096   57.0070 C.3     1  ZINC000331626032   -0.0400
     19 H19        -8.3834    4.5354   57.2070 H       1  ZINC000331626032    0.1000
     20 C20        -8.1981    2.6918   58.2667 C.ar    1  ZINC000331626032    0.2300
     21 C21        -8.6145    3.2835   59.4486 C.ar    1  ZINC000331626032   -0.2900
     22 C22        -8.7157    2.4954   60.5846 C.ar    1  ZINC000331626032    0.1900
     23 N23        -8.4137    1.2101   60.5071 N.ar    1  ZINC000331626032   -0.5700
     24 C24        -8.0185    0.6752   59.3610 C.ar    1  ZINC000331626032    0.5700
     25 N25        -7.7108   -0.6735   59.3156 N.pl3   1  ZINC000331626032   -0.8200
     26 N26        -7.9166    1.3993   58.2563 N.ar    1  ZINC000331626032   -0.5700
     27 C27        -6.6188    3.4988   56.5318 C.3     1  ZINC000331626032    0.0700
     28 H28        -5.2931    6.4791   54.3296 H       1  ZINC000331626032    0.0700
     29 H29        -3.9202    5.6415   53.5668 H       1  ZINC000331626032    0.0800
     30 H30        -5.5785    5.3327   52.9981 H       1  ZINC000331626032    0.0700
     31 H31        -2.5740    2.4609   55.1611 H       1  ZINC000331626032    0.0600
     32 H32        -3.0930    1.6885   56.6786 H       1  ZINC000331626032    0.0800
     33 H33        -4.3059    2.2064   55.4831 H       1  ZINC000331626032    0.0800
     34 H34        -1.7061    2.0966   57.7222 H       1  ZINC000331626032    0.1200
     35 H35        -0.3171    2.5852   59.6942 H       1  ZINC000331626032    0.1300
     36 H36        -0.4518    4.7889   60.7817 H       1  ZINC000331626032    0.1300
     37 H37        -1.9750    6.5099   59.9011 H       1  ZINC000331626032    0.1300
     38 H38        -3.3625    6.0337   57.9250 H       1  ZINC000331626032    0.1200
     39 H39        -7.1809    4.2751   53.3058 H       1  ZINC000331626032    0.0900
     40 H40        -6.9961    2.6655   54.0426 H       1  ZINC000331626032    0.0300
     41 H41        -9.1095    4.7391   54.7869 H       1  ZINC000331626032    0.0800
     42 H42        -9.3887    3.2617   53.8330 H       1  ZINC000331626032    0.0700
     43 H43       -10.0078    2.9545   56.2337 H       1  ZINC000331626032    0.0700
     44 H44        -8.6814    1.8712   55.7445 H       1  ZINC000331626032    0.0700
     45 H45        -8.8546    4.3360   59.4840 H       1  ZINC000331626032    0.1400
     46 H46        -9.0369    2.9259   61.5216 H       1  ZINC000331626032    0.1700
     47 H47        -7.7856   -1.2153   60.1167 H       1  ZINC000331626032    0.4100
     48 H48        -7.4203   -1.0769   58.4827 H       1  ZINC000331626032    0.4100
     49 H49        -6.3053    2.4716   56.3453 H       1  ZINC000331626032    0.0400
     50 H50        -5.9825    3.9388   57.2997 H       1  ZINC000331626032    0.0800
@<TRIPOS>BOND
     1     1     2    1
     2     1    28    1
     3     1    29    1
     4     1    30    1
     5     2     3    1
     6     2     4    1
     7     2    14    1
     8     4     5    2
     9     4     6   am
    10     6     7    1
    11     6     8    1
    12     7    31    1
    13     7    32    1
    14     7    33    1
    15     8    13   ar
    16     8     9   ar
    17     9    10   ar
    18     9    34    1
    19    10    11   ar
    20    10    35    1
    21    11    12   ar
    22    11    36    1
    23    12    13   ar
    24    12    37    1
    25    13    38    1
    26    14    27    1
    27    14    15    1
    28    15    16    1
    29    15    39    1
    30    15    40    1
    31    16    17    1
    32    16    41    1
    33    16    42    1
    34    17    18    1
    35    17    43    1
    36    17    44    1
    37    18    19    1
    38    18    20    1
    39    18    27    1
    40    20    26   ar
    41    20    21   ar
    42    21    22   ar
    43    21    45    1
    44    22    23   ar
    45    22    46    1
    46    23    24   ar
    47    24    25    1
    48    24    26   ar
    49    25    47    1
    50    25    48    1
    51    27    49    1
    52    27    50    1
@<TRIPOS>SUBSTRUCTURE
     1 ZINC000331626032        1 TEMP              0 ****  ****    0 ROOT


##########                                Name:    ZINC001010141213
##########                DOCK_Rotatable_Bonds:                   4
##########                         Heavy_Atoms:                  24
##########                    Molecular_Weight:             330.346
##########                DOCK_Rotatable_Bonds:                   4
##########                       Formal_Charge:          -0.0100003
##########                     HBond_Acceptors:                   9
##########                        HBond_Donors:                   1
##########                         Heavy_Atoms:                  24
##########                          Grid_Score:          -21.279839
##########                     Grid_vdw_energy:          -20.574560
##########                      Grid_es_energy:           -0.705278
##########           Internal_energy_repulsive:           14.439590

@<TRIPOS>MOLECULE
ZINC001010141213
 42 44 1 0 0
SMALL
USER_CHARGES


@<TRIPOS>ATOM
      1 C1         -4.1118    3.5927   51.1574 C.3     1  ZINC001010141213   -0.0800
      2 C2         -4.0894    3.2833   52.6321 C.2     1  ZINC001010141213   -0.1500
      3 C3         -5.1329    3.4114   53.5322 C.2     1  ZINC001010141213   -0.0400
      4 C4         -6.4972    3.8805   53.2420 C.2     1  ZINC001010141213    0.6000
      5 O5         -6.8407    4.9977   53.5785 O.2     1  ZINC001010141213   -0.5100
      6 N6         -7.3662    3.0722   52.6030 N.am    1  ZINC001010141213   -0.6100
      7 C7         -6.9669    1.7178   52.1959 C.3     1  ZINC001010141213    0.0900
      8 C8         -7.9628    0.7139   52.7900 C.3     1  ZINC001010141213    0.0700
      9 N9         -9.3266    1.1710   52.4884 N.am    1  ZINC001010141213   -0.6000
     10 C10       -10.1957    0.3624   51.8504 C.2     1  ZINC001010141213    0.5900
     11 O11        -9.8542   -0.7562   51.5190 O.2     1  ZINC001010141213   -0.5200
     12 C12       -11.5649    0.8358   51.5536 C.2     1  ZINC001010141213    0.0300
     13 N13       -11.8260    1.4008   50.3963 N.2     1  ZINC001010141213   -0.1800
     14 N14       -12.9976    1.8281   50.0910 N.am    1  ZINC001010141213   -0.4400
     15 C15       -14.0351    1.7228   50.9420 C.2     1  ZINC001010141213    0.4800
     16 O16       -15.1365    2.1383   50.6221 O.2     1  ZINC001010141213   -0.5100
     17 C17       -13.8399    1.1276   52.2083 C.2     1  ZINC001010141213   -0.1800
     18 C18       -12.5915    0.6738   52.5150 C.2     1  ZINC001010141213   -0.0400
     19 C19        -9.7259    2.5255   52.8956 C.3     1  ZINC001010141213    0.1000
     20 C20        -8.7317    3.5273   52.3065 C.3     1  ZINC001010141213    0.1000
     21 N21        -4.6427    3.0150   54.7441 N.pl3   1  ZINC001010141213   -0.2700
     22 C22        -5.4050    2.9861   55.9947 C.3     1  ZINC001010141213    0.0900
     23 N23        -3.4114    2.6710   54.6195 N.2     1  ZINC001010141213   -0.2800
     24 C24        -3.0131    2.8004   53.3798 C.2     1  ZINC001010141213    0.0100
     25 H25        -4.4119    2.7030   50.6039 H       1  ZINC001010141213    0.0700
     26 H26        -4.8224    4.3967   50.9656 H       1  ZINC001010141213    0.0600
     27 H27        -3.1174    3.9024   50.8360 H       1  ZINC001010141213    0.0700
     28 H28        -6.9783    1.6444   51.1084 H       1  ZINC001010141213    0.0800
     29 H29        -5.9654    1.5039   52.5691 H       1  ZINC001010141213    0.1000
     30 H30        -7.7999   -0.2687   52.3470 H       1  ZINC001010141213    0.1400
     31 H31        -7.8259    0.6582   53.8699 H       1  ZINC001010141213    0.0800
     32 H32       -13.1389    2.2382   49.2233 H       1  ZINC001010141213    0.4500
     33 H33       -14.6554    1.0309   52.9097 H       1  ZINC001010141213    0.1700
     34 H34       -12.3891    0.2105   53.4693 H       1  ZINC001010141213    0.1700
     35 H35       -10.7274    2.7394   52.5224 H       1  ZINC001010141213    0.1100
     36 H36        -9.7145    2.5989   53.9831 H       1  ZINC001010141213    0.0800
     37 H37        -8.8957    4.5093   52.7503 H       1  ZINC001010141213    0.1100
     38 H38        -8.8663    3.5841   51.2264 H       1  ZINC001010141213    0.0800
     39 H39        -5.8116    1.9867   56.1495 H       1  ZINC001010141213    0.0900
     40 H40        -4.7491    3.2443   56.8261 H       1  ZINC001010141213    0.1000
     41 H41        -6.2217    3.7059   55.9392 H       1  ZINC001010141213    0.0900
     42 H42        -2.0253    2.5797   53.0030 H       1  ZINC001010141213    0.1900
@<TRIPOS>BOND
     1     1     2    1
     2     1    25    1
     3     1    26    1
     4     1    27    1
     5     2    24    1
     6     2     3    2
     7     3     4    1
     8     3    21    1
     9     4     5    2
    10     4     6   am
    11     6    20    1
    12     6     7    1
    13     7     8    1
    14     7    28    1
    15     7    29    1
    16     8     9    1
    17     8    30    1
    18     8    31    1
    19     9    10   am
    20     9    19    1
    21    10    11    2
    22    10    12    1
    23    12    18    1
    24    12    13    2
    25    13    14    1
    26    14    15   am
    27    14    32    1
    28    15    16    2
    29    15    17    1
    30    17    18    2
    31    17    33    1
    32    18    34    1
    33    19    20    1
    34    19    35    1
    35    19    36    1
    36    20    37    1
    37    20    38    1
    38    21    22    1
    39    21    23    1
    40    22    39    1
    41    22    40    1
    42    22    41    1
    43    23    24    2
    44    24    42    1
@<TRIPOS>SUBSTRUCTURE
     1 ZINC001010141213        1 TEMP              0 ****  ****    0 ROOT


##########                                Name:    ZINC000004040798
##########                DOCK_Rotatable_Bonds:                   3
##########                         Heavy_Atoms:                  22
##########                    Molecular_Weight:             361.151
##########                DOCK_Rotatable_Bonds:                   3
##########                       Formal_Charge:           0.0200003
##########                     HBond_Acceptors:                   6
##########                        HBond_Donors:                   1
##########                         Heavy_Atoms:                  22
##########                          Grid_Score:          -21.265482
##########                     Grid_vdw_energy:          -20.532164
##########                      Grid_es_energy:           -0.733318
##########           Internal_energy_repulsive:            2.466828

@<TRIPOS>MOLECULE
ZINC000004040798
 31 33 1 0 0
SMALL
USER_CHARGES


@<TRIPOS>ATOM
      1 O1        -12.7496    0.7886   55.2388 O.2     1  ZINC000004040798   -0.4800
      2 C2        -11.8259    0.1077   54.8344 C.2     1  ZINC000004040798    0.6100
      3 N3        -11.7725   -1.2044   55.1378 N.am    1  ZINC000004040798   -0.6600
      4 C4        -12.7758   -1.7821   55.9223 C.ar    1  ZINC000004040798    0.2300
      5 C5        -14.0703   -1.8860   55.4308 C.ar    1  ZINC000004040798   -0.1300
      6 C6        -15.0592   -2.4570   56.2083 C.ar    1  ZINC000004040798   -0.0100
      7 C7        -14.7615   -2.9249   57.4748 C.ar    1  ZINC000004040798   -0.0600
      8 N8        -15.8240   -3.5361   58.3047 N.pl3   1  ZINC000004040798    0.0300
      9 O9        -16.9589   -3.6263   57.8717 O.2     1  ZINC000004040798   -0.1500
     10 O10       -15.5634   -3.9489   59.4206 O.2     1  ZINC000004040798   -0.1500
     11 C11       -13.4734   -2.8238   57.9679 C.ar    1  ZINC000004040798    0.0000
     12 C12       -12.4783   -2.2586   57.1937 C.ar    1  ZINC000004040798   -0.1400
     13 Br13      -10.7172   -2.1206   57.8684 Br      1  ZINC000004040798    0.0000
     14 C14       -10.7718    0.7146   54.0101 C.2     1  ZINC000004040798   -0.0500
     15 C15        -9.6719    0.0666   53.5461 C.2     1  ZINC000004040798   -0.0800
     16 C16        -8.9118    1.0549   52.7816 C.ar    1  ZINC000004040798   -0.1500
     17 C17        -7.7120    1.0204   52.0676 C.ar    1  ZINC000004040798   -0.0500
     18 C18        -7.2611    2.1508   51.4459 C.ar    1  ZINC000004040798   -0.1400
     19 C19        -7.9872    3.3314   51.5200 C.ar    1  ZINC000004040798   -0.0700
     20 C20        -9.1736    3.3862   52.2196 C.ar    1  ZINC000004040798   -0.1100
     21 C21        -9.6525    2.2493   52.8597 C.ar    1  ZINC000004040798    0.0800
     22 O22       -10.7533    1.9986   53.5949 O.3     1  ZINC000004040798   -0.1900
     23 H23       -11.0382   -1.7480   54.8119 H       1  ZINC000004040798    0.4300
     24 H24       -14.3039   -1.5203   54.4418 H       1  ZINC000004040798    0.1800
     25 H25       -16.0662   -2.5376   55.8265 H       1  ZINC000004040798    0.1700
     26 H26       -13.2441   -3.1904   58.9576 H       1  ZINC000004040798    0.1700
     27 H27        -9.4111   -0.9687   53.7092 H       1  ZINC000004040798    0.1800
     28 H28        -7.1428    0.1046   52.0073 H       1  ZINC000004040798    0.1400
     29 H29        -6.3335    2.1255   50.8935 H       1  ZINC000004040798    0.1400
     30 H30        -7.6183    4.2171   51.0243 H       1  ZINC000004040798    0.1400
     31 H31        -9.7300    4.3105   52.2700 H       1  ZINC000004040798    0.1400
@<TRIPOS>BOND
     1     1     2    2
     2     2     3   am
     3     2    14    1
     4     3     4    1
     5     3    23    1
     6     4    12   ar
     7     4     5   ar
     8     5     6   ar
     9     5    24    1
    10     6     7   ar
    11     6    25    1
    12     7     8    1
    13     7    11   ar
    14     8     9    2
    15     8    10    2
    16    11    12   ar
    17    11    26    1
    18    12    13    1
    19    14    22    1
    20    14    15    2
    21    15    16    1
    22    15    27    1
    23    16    21   ar
    24    16    17   ar
    25    17    18   ar
    26    17    28    1
    27    18    19   ar
    28    18    29    1
    29    19    20   ar
    30    19    30    1
    31    20    21   ar
    32    20    31    1
    33    21    22    1
@<TRIPOS>SUBSTRUCTURE
     1 ZINC000004040798        1 TEMP              0 ****  ****    0 ROOT


##########                                Name:    ZINC000793092912
##########                DOCK_Rotatable_Bonds:                   4
##########                         Heavy_Atoms:                  26
##########                    Molecular_Weight:               407.2
##########                DOCK_Rotatable_Bonds:                   4
##########                       Formal_Charge:         2.90573e-07
##########                     HBond_Acceptors:                  10
##########                        HBond_Donors:                   1
##########                         Heavy_Atoms:                  26
##########                          Grid_Score:          -21.264887
##########                     Grid_vdw_energy:          -20.891914
##########                      Grid_es_energy:           -0.372973
##########           Internal_energy_repulsive:           12.794270

@<TRIPOS>MOLECULE
ZINC000793092912
 40 43 1 0 0
SMALL
USER_CHARGES


@<TRIPOS>ATOM
      1 C1        -10.7728    1.5630   62.2702 C.3     1  ZINC000793092912   -0.1300
      2 C2        -11.3795    0.8329   61.0703 C.3     1  ZINC000793092912   -0.0800
      3 C3        -10.4923    0.7658   59.8368 C.3     1  ZINC000793092912   -0.1100
      4 C4        -10.3605   -0.6445   59.2933 C.3     1  ZINC000793092912    0.1100
      5 N5        -11.6265   -1.3576   59.3179 N.am    1  ZINC000793092912   -0.5700
      6 C6        -12.0995   -1.8810   58.1696 C.2     1  ZINC000793092912    0.5100
      7 O7        -13.1546   -2.4808   58.1654 O.2     1  ZINC000793092912   -0.5100
      8 C8        -11.3255   -1.7230   56.9023 C.2     1  ZINC000793092912    0.5100
      9 O9        -10.7117   -2.6650   56.4446 O.2     1  ZINC000793092912   -0.4900
     10 N10       -11.3083   -0.5346   56.2668 N.am    1  ZINC000793092912   -0.6400
     11 C11       -10.5834   -0.3867   55.0800 C.ar    1  ZINC000793092912    0.1600
     12 C12       -10.9138   -1.1459   53.9651 C.ar    1  ZINC000793092912   -0.1200
     13 C13       -10.1984   -1.0008   52.7918 C.ar    1  ZINC000793092912   -0.0600
     14 C14        -9.1493   -0.0984   52.7243 C.ar    1  ZINC000793092912    0.0200
     15 O15        -8.3011    0.2273   51.7045 O.3     1  ZINC000793092912   -0.2800
     16 C16        -7.7116    1.4855   52.0819 C.3     1  ZINC000793092912    0.5700
     17 F17        -6.3884    1.5623   51.6343 F       1  ZINC000793092912   -0.1100
     18 F18        -8.4629    2.5517   51.5758 F       1  ZINC000793092912   -0.1500
     19 O19        -7.7586    1.4677   53.5208 O.3     1  ZINC000793092912   -0.2800
     20 C20        -8.8152    0.6649   53.8413 C.ar    1  ZINC000793092912    0.0500
     21 C21        -9.5362    0.5237   55.0144 C.ar    1  ZINC000793092912   -0.0900
     22 C22       -12.4014   -1.5273   60.5378 C.3     1  ZINC000793092912    0.1100
     23 C23       -12.4007   -0.2524   61.3683 C.3     1  ZINC000793092912   -0.1200
     24 H24       -12.6153   -0.4007   62.4266 H       1  ZINC000793092912    0.1400
     25 C25       -12.8732    1.0748   60.7943 C.3     1  ZINC000793092912    0.0000
     26 Cl26      -13.7717    2.1860   61.8937 Cl      1  ZINC000793092912   -0.0800
     27 Cl27      -13.3917    1.0991   59.0676 Cl      1  ZINC000793092912   -0.0900
     28 H28       -10.2597    0.8456   62.9107 H       1  ZINC000793092912    0.0800
     29 H29       -10.0612    2.3103   61.9190 H       1  ZINC000793092912    0.0700
     30 H30       -11.5650    2.0533   62.8358 H       1  ZINC000793092912    0.0700
     31 H31       -10.9166    1.4043   59.0619 H       1  ZINC000793092912    0.0900
     32 H32        -9.5009    1.1386   60.0945 H       1  ZINC000793092912    0.1000
     33 H33       -10.0008   -0.5962   58.2656 H       1  ZINC000793092912    0.1100
     34 H34        -9.6346   -1.1902   59.8961 H       1  ZINC000793092912    0.0800
     35 H35       -11.7987    0.2181   56.6326 H       1  ZINC000793092912    0.4300
     36 H36       -11.7306   -1.8508   54.0151 H       1  ZINC000793092912    0.1500
     37 H37       -10.4572   -1.5922   51.9260 H       1  ZINC000793092912    0.1500
     38 H38        -9.2824    1.1184   55.8794 H       1  ZINC000793092912    0.1600
     39 H39       -13.4322   -1.7657   60.2757 H       1  ZINC000793092912    0.1400
     40 H40       -11.9816   -2.3505   61.1159 H       1  ZINC000793092912    0.1000
@<TRIPOS>BOND
     1     1     2    1
     2     1    28    1
     3     1    29    1
     4     1    30    1
     5     2    23    1
     6     2    25    1
     7     2     3    1
     8     3     4    1
     9     3    31    1
    10     3    32    1
    11     4     5    1
    12     4    33    1
    13     4    34    1
    14     5     6   am
    15     5    22    1
    16     6     7    2
    17     6     8    1
    18     8     9    2
    19     8    10   am
    20    10    11    1
    21    10    35    1
    22    11    21   ar
    23    11    12   ar
    24    12    13   ar
    25    12    36    1
    26    13    14   ar
    27    13    37    1
    28    14    20   ar
    29    14    15    1
    30    15    16    1
    31    16    17    1
    32    16    18    1
    33    16    19    1
    34    19    20    1
    35    20    21   ar
    36    21    38    1
    37    22    23    1
    38    22    39    1
    39    22    40    1
    40    23    24    1
    41    23    25    1
    42    25    26    1
    43    25    27    1
@<TRIPOS>SUBSTRUCTURE
     1 ZINC000793092912        1 TEMP              0 ****  ****    0 ROOT


##########                                Name:    ZINC000455156110
##########                DOCK_Rotatable_Bonds:                   4
##########                         Heavy_Atoms:                  27
##########                    Molecular_Weight:             370.424
##########                DOCK_Rotatable_Bonds:                   4
##########                       Formal_Charge:           0.0100002
##########                     HBond_Acceptors:                   6
##########                        HBond_Donors:                   1
##########                         Heavy_Atoms:                  27
##########                          Grid_Score:          -21.056993
##########                     Grid_vdw_energy:          -20.958040
##########                      Grid_es_energy:           -0.098952
##########           Internal_energy_repulsive:           27.074814

@<TRIPOS>MOLECULE
ZINC000455156110
 50 53 1 0 0
SMALL
USER_CHARGES


@<TRIPOS>ATOM
      1 C1        -10.6931    3.5796   50.6847 C.3     1  ZINC000455156110    0.0300
      2 O2        -10.4095    2.2062   50.9592 O.3     1  ZINC000455156110   -0.3100
      3 C3        -10.4625    1.8126   52.2602 C.ar    1  ZINC000455156110    0.0900
      4 C4        -10.7662    2.7333   53.2507 C.ar    1  ZINC000455156110   -0.1600
      5 C5        -10.8204    2.3345   54.5726 C.ar    1  ZINC000455156110   -0.0800
      6 C6        -11.1501    3.3366   55.6487 C.3     1  ZINC000455156110   -0.1100
      7 C7        -10.5715    1.0112   54.9096 C.ar    1  ZINC000455156110    0.1500
      8 N8        -10.6275    0.6070   56.2503 N.am    1  ZINC000455156110   -0.6700
      9 C9        -11.8146    0.3125   56.8163 C.2     1  ZINC000455156110    0.7200
     10 O10       -12.8371    0.3975   56.1637 O.2     1  ZINC000455156110   -0.5500
     11 N11       -11.8685   -0.0762   58.1057 N.am    1  ZINC000455156110   -0.5600
     12 C12       -13.0956   -0.4280   58.8275 C.3     1  ZINC000455156110    0.1000
     13 C13       -12.6325   -0.7969   60.2421 C.3     1  ZINC000455156110   -0.0200
     14 C14       -13.2661    0.1401   61.2678 C.3     1  ZINC000455156110   -0.1400
     15 C15       -14.7798   -0.0934   61.2950 C.3     1  ZINC000455156110    0.0600
     16 O16       -15.0422   -1.4683   61.5835 O.3     1  ZINC000455156110   -0.3800
     17 C17       -14.5220   -2.3801   60.6138 C.3     1  ZINC000455156110    0.0600
     18 C18       -12.9971   -2.2459   60.5573 C.3     1  ZINC000455156110   -0.1400
     19 C19       -11.1348   -0.6222   60.2211 C.ar    1  ZINC000455156110   -0.1300
     20 C20       -10.1818   -0.8065   61.2042 C.ar    1  ZINC000455156110   -0.0700
     21 C21        -8.8464   -0.5758   60.9302 C.ar    1  ZINC000455156110   -0.1400
     22 C22        -8.4649   -0.1593   59.6683 C.ar    1  ZINC000455156110   -0.0900
     23 C23        -9.4120    0.0270   58.6838 C.ar    1  ZINC000455156110   -0.1300
     24 C24       -10.7613   -0.2093   58.9504 C.ar    1  ZINC000455156110    0.1600
     25 C25       -10.2677    0.0878   53.9180 C.ar    1  ZINC000455156110   -0.1200
     26 C26       -10.2180    0.4865   52.5953 C.ar    1  ZINC000455156110    0.0900
     27 F27        -9.9229   -0.4111   51.6296 F       1  ZINC000455156110   -0.1300
     28 H28       -10.6163    3.7593   49.6124 H       1  ZINC000455156110    0.1000
     29 H29       -11.7024    3.8164   51.0215 H       1  ZINC000455156110    0.0600
     30 H30        -9.9770    4.2107   51.2111 H       1  ZINC000455156110    0.0600
     31 H31       -10.9603    3.7630   52.9892 H       1  ZINC000455156110    0.1400
     32 H32       -12.2289    3.3631   55.8024 H       1  ZINC000455156110    0.0800
     33 H33       -10.6578    3.0478   56.5774 H       1  ZINC000455156110    0.0600
     34 H34       -10.8021    4.3238   55.3449 H       1  ZINC000455156110    0.0800
     35 H35        -9.8119    0.5392   56.7708 H       1  ZINC000455156110    0.4100
     36 H36       -13.7730    0.4253   58.8613 H       1  ZINC000455156110    0.0800
     37 H37       -13.5823   -1.2806   58.3540 H       1  ZINC000455156110    0.0900
     38 H38       -12.8484   -0.0633   62.2539 H       1  ZINC000455156110    0.0800
     39 H39       -13.0619    1.1744   60.9913 H       1  ZINC000455156110    0.0800
     40 H40       -15.2305    0.5322   62.0653 H       1  ZINC000455156110    0.1000
     41 H41       -15.2045    0.1619   60.3241 H       1  ZINC000455156110    0.0500
     42 H42       -14.7873   -3.3995   60.8939 H       1  ZINC000455156110    0.1000
     43 H43       -14.9437   -2.1500   59.6352 H       1  ZINC000455156110    0.0500
     44 H44       -12.6026   -2.8984   59.7784 H       1  ZINC000455156110    0.0800
     45 H45       -12.5707   -2.5276   61.5201 H       1  ZINC000455156110    0.0800
     46 H46       -10.4809   -1.1314   62.1897 H       1  ZINC000455156110    0.1300
     47 H47        -8.1032   -0.7203   61.7003 H       1  ZINC000455156110    0.1300
     48 H48        -7.4219    0.0209   59.4531 H       1  ZINC000455156110    0.1300
     49 H49        -9.1077    0.3530   57.7002 H       1  ZINC000455156110    0.1400
     50 H50       -10.0740   -0.9419   54.1795 H       1  ZINC000455156110    0.1700
@<TRIPOS>BOND
     1     1     2    1
     2     1    28    1
     3     1    29    1
     4     1    30    1
     5     2     3    1
     6     3    26   ar
     7     3     4   ar
     8     4     5   ar
     9     4    31    1
    10     5     6    1
    11     5     7   ar
    12     6    32    1
    13     6    33    1
    14     6    34    1
    15     7     8    1
    16     7    25   ar
    17     8     9   am
    18     8    35    1
    19     9    10    2
    20     9    11   am
    21    11    24    1
    22    11    12    1
    23    12    13    1
    24    12    36    1
    25    12    37    1
    26    13    18    1
    27    13    14    1
    28    13    19    1
    29    14    15    1
    30    14    38    1
    31    14    39    1
    32    15    16    1
    33    15    40    1
    34    15    41    1
    35    16    17    1
    36    17    18    1
    37    17    42    1
    38    17    43    1
    39    18    44    1
    40    18    45    1
    41    19    24   ar
    42    19    20   ar
    43    20    21   ar
    44    20    46    1
    45    21    22   ar
    46    21    47    1
    47    22    23   ar
    48    22    48    1
    49    23    24   ar
    50    23    49    1
    51    25    26   ar
    52    25    50    1
    53    26    27    1
@<TRIPOS>SUBSTRUCTURE
     1 ZINC000455156110        1 TEMP              0 ****  ****    0 ROOT


##########                                Name:    ZINC000648570180
##########                DOCK_Rotatable_Bonds:                   4
##########                         Heavy_Atoms:                  25
##########                    Molecular_Weight:             342.484
##########                DOCK_Rotatable_Bonds:                   4
##########                       Formal_Charge:          0.00999971
##########                     HBond_Acceptors:                   5
##########                        HBond_Donors:                   0
##########                         Heavy_Atoms:                  25
##########                          Grid_Score:          -20.835577
##########                     Grid_vdw_energy:          -19.928297
##########                      Grid_es_energy:           -0.907280
##########           Internal_energy_repulsive:           83.439568

@<TRIPOS>MOLECULE
ZINC000648570180
 55 58 1 0 0
SMALL
USER_CHARGES


@<TRIPOS>ATOM
      1 C1         -0.9318    3.1093   59.2955 C.3     1  ZINC000648570180   -0.1500
      2 C2          0.4486    3.4011   58.7036 C.3     1  ZINC000648570180   -0.0600
      3 C3          1.1784    4.4361   59.5622 C.3     1  ZINC000648570180   -0.1400
      4 C4          1.2753    2.1010   58.6246 C.3     1  ZINC000648570180   -0.1200
      5 C5          2.0711    2.2368   57.3027 C.3     1  ZINC000648570180   -0.1300
      6 C6          1.0496    2.9158   56.3569 C.3     1  ZINC000648570180   -0.1200
      7 C7          0.3051    3.9191   57.2618 C.3     1  ZINC000648570180   -0.0700
      8 H8          0.7561    4.9075   57.1736 H       1  ZINC000648570180    0.0800
      9 C9         -1.1727    3.9812   56.8707 C.3     1  ZINC000648570180   -0.1000
     10 H10        -1.7089    3.1059   57.2376 H       1  ZINC000648570180    0.1000
     11 C11        -1.8292    5.2904   57.3829 C.3     1  ZINC000648570180   -0.1400
     12 C12        -2.9860    5.5103   56.3854 C.3     1  ZINC000648570180    0.1200
     13 N13        -2.6505    4.7729   55.1584 N.am    1  ZINC000648570180   -0.6000
     14 C14        -3.4174    4.6975   54.0528 C.2     1  ZINC000648570180    0.5800
     15 O15        -4.4874    5.2715   54.0154 O.2     1  ZINC000648570180   -0.5200
     16 C16        -2.9546    3.9129   52.8804 C.ar    1  ZINC000648570180    0.1600
     17 C17        -3.7192    2.8546   52.3903 C.ar    1  ZINC000648570180   -0.2000
     18 C18        -3.2456    2.1504   51.2917 C.ar    1  ZINC000648570180    0.1800
     19 N19        -2.0941    2.5013   50.7477 N.ar    1  ZINC000648570180   -0.5400
     20 C20        -1.3890    3.5124   51.2361 C.ar    1  ZINC000648570180    0.4800
     21 N21        -0.1872    3.8478   50.6367 N.3     1  ZINC000648570180   -0.4400
     22 C22         0.8936    3.9782   51.6473 C.3     1  ZINC000648570180    0.0500
     23 C23         2.1857    3.8216   50.8066 C.3     1  ZINC000648570180   -0.1200
     24 C24         1.7941    2.7455   49.7680 C.3     1  ZINC000648570180   -0.1300
     25 C25         0.2560    2.7863   49.7071 C.3     1  ZINC000648570180    0.0400
     26 N26        -1.8065    4.2124   52.2779 N.ar    1  ZINC000648570180   -0.5000
     27 C27        -1.3356    4.1296   55.3374 C.3     1  ZINC000648570180    0.1100
     28 H28        -1.4860    2.4570   58.6206 H       1  ZINC000648570180    0.0600
     29 H29        -0.8164    2.6184   60.2618 H       1  ZINC000648570180    0.0500
     30 H30        -1.4764    4.0445   59.4257 H       1  ZINC000648570180    0.0700
     31 H31         1.2858    4.0549   60.5778 H       1  ZINC000648570180    0.0500
     32 H32         2.1648    4.6279   59.1399 H       1  ZINC000648570180    0.0500
     33 H33         0.6045    5.3626   59.5806 H       1  ZINC000648570180    0.0500
     34 H34         1.9551    2.0291   59.4735 H       1  ZINC000648570180    0.0600
     35 H35         0.6176    1.2326   58.5865 H       1  ZINC000648570180    0.0700
     36 H36         2.9477    2.8693   57.4428 H       1  ZINC000648570180    0.0700
     37 H37         2.3576    1.2564   56.9219 H       1  ZINC000648570180    0.0700
     38 H38         1.5648    3.4385   55.5510 H       1  ZINC000648570180    0.0700
     39 H39         0.3556    2.1790   55.9527 H       1  ZINC000648570180    0.0700
     40 H40        -2.2122    5.1596   58.3949 H       1  ZINC000648570180    0.0900
     41 H41        -1.1215    6.1184   57.3413 H       1  ZINC000648570180    0.0800
     42 H42        -3.9158    5.1270   56.8057 H       1  ZINC000648570180    0.0800
     43 H43        -3.0872    6.5726   56.1634 H       1  ZINC000648570180    0.0700
     44 H44        -4.6574    2.5888   52.8547 H       1  ZINC000648570180    0.1600
     45 H45        -3.8121    1.3250   50.8864 H       1  ZINC000648570180    0.1800
     46 H46         0.8600    4.9587   52.1222 H       1  ZINC000648570180    0.1000
     47 H47         0.8210    3.1860   52.3924 H       1  ZINC000648570180    0.0500
     48 H48         2.4407    4.7593   50.3131 H       1  ZINC000648570180    0.0800
     49 H49         3.0109    3.4750   51.4287 H       1  ZINC000648570180    0.0800
     50 H50         2.2179    2.9884   48.7936 H       1  ZINC000648570180    0.0800
     51 H51         2.1339    1.7628   50.0950 H       1  ZINC000648570180    0.0700
     52 H52        -0.1536    1.8254   50.0185 H       1  ZINC000648570180    0.0900
     53 H53        -0.0695    3.0207   48.6935 H       1  ZINC000648570180    0.0900
     54 H54        -0.5457    4.7619   54.9322 H       1  ZINC000648570180    0.0700
     55 H55        -1.3234    3.1513   54.8571 H       1  ZINC000648570180    0.0800
@<TRIPOS>BOND
     1     1     2    1
     2     1    28    1
     3     1    29    1
     4     1    30    1
     5     2     7    1
     6     2     3    1
     7     2     4    1
     8     3    31    1
     9     3    32    1
    10     3    33    1
    11     4     5    1
    12     4    34    1
    13     4    35    1
    14     5     6    1
    15     5    36    1
    16     5    37    1
    17     6     7    1
    18     6    38    1
    19     6    39    1
    20     7     8    1
    21     7     9    1
    22     9    10    1
    23     9    27    1
    24     9    11    1
    25    11    12    1
    26    11    40    1
    27    11    41    1
    28    12    13    1
    29    12    42    1
    30    12    43    1
    31    13    14   am
    32    13    27    1
    33    14    15    2
    34    14    16    1
    35    16    26   ar
    36    16    17   ar
    37    17    18   ar
    38    17    44    1
    39    18    19   ar
    40    18    45    1
    41    19    20   ar
    42    20    21    1
    43    20    26   ar
    44    21    25    1
    45    21    22    1
    46    22    23    1
    47    22    46    1
    48    22    47    1
    49    23    24    1
    50    23    48    1
    51    23    49    1
    52    24    25    1
    53    24    50    1
    54    24    51    1
    55    25    52    1
    56    25    53    1
    57    27    54    1
    58    27    55    1
@<TRIPOS>SUBSTRUCTURE
     1 ZINC000648570180        1 TEMP              0 ****  ****    0 ROOT


##########                                Name:    ZINC000656860804
##########                DOCK_Rotatable_Bonds:                   2
##########                         Heavy_Atoms:                  19
##########                    Molecular_Weight:             388.068
##########                DOCK_Rotatable_Bonds:                   2
##########                       Formal_Charge:          8.9407e-08
##########                     HBond_Acceptors:                   8
##########                        HBond_Donors:                   1
##########                         Heavy_Atoms:                  19
##########                          Grid_Score:          -20.651817
##########                     Grid_vdw_energy:          -22.031702
##########                      Grid_es_energy:            1.379885
##########           Internal_energy_repulsive:           12.876932

@<TRIPOS>MOLECULE
ZINC000656860804
 28 29 1 0 0
SMALL
USER_CHARGES


@<TRIPOS>ATOM
      1 O1         -1.3128    1.9662   57.3781 O.2     1  ZINC000656860804   -0.5400
      2 C2         -1.8212    2.9551   56.8940 C.2     1  ZINC000656860804    0.5100
      3 C3         -2.0154    3.0054   55.4030 C.3     1  ZINC000656860804    0.1100
      4 N4         -2.9064    4.1287   55.0766 N.am    1  ZINC000656860804   -1.0000
      5 S5         -4.1155    3.9719   53.9560 S.o2    1  ZINC000656860804    2.6900
      6 O6         -4.8848    2.8442   54.3508 O.2     1  ZINC000656860804   -0.9200
      7 O7         -4.6704    5.2682   53.7802 O.2     1  ZINC000656860804   -0.9300
      8 C8         -3.3555    3.5443   52.4249 C.ar    1  ZINC000656860804   -0.6500
      9 C9         -1.9835    3.6342   52.2861 C.ar    1  ZINC000656860804    0.0100
     10 C10        -1.3862    3.2986   51.0841 C.ar    1  ZINC000656860804   -0.0400
     11 Cl11        0.3374    3.4111   50.9098 Cl      1  ZINC000656860804   -0.0200
     12 C12        -2.1633    2.8725   50.0205 C.ar    1  ZINC000656860804    0.0200
     13 Cl13       -1.4146    2.4506   48.5121 Cl      1  ZINC000656860804   -0.0100
     14 C14        -3.5366    2.7827   50.1603 C.ar    1  ZINC000656860804   -0.0900
     15 C15        -4.1319    3.1130   51.3641 C.ar    1  ZINC000656860804    0.0100
     16 Br16       -6.0092    2.9903   51.5553 Br      1  ZINC000656860804    0.0100
     17 C17        -2.6802    5.3987   55.7870 C.3     1  ZINC000656860804    0.0900
     18 C18        -2.8838    5.1519   57.2831 C.3     1  ZINC000656860804    0.0800
     19 N19        -2.1876    3.9457   57.7085 N.am    1  ZINC000656860804   -0.7100
     20 H20        -1.0519    3.1496   54.9141 H       1  ZINC000656860804    0.1200
     21 H21        -2.4639    2.0725   55.0616 H       1  ZINC000656860804    0.1200
     22 H22        -1.3775    3.9670   53.1158 H       1  ZINC000656860804    0.1700
     23 H23        -4.1433    2.4508   49.3308 H       1  ZINC000656860804    0.1700
     24 H24        -1.6624    5.7448   55.6066 H       1  ZINC000656860804    0.1000
     25 H25        -3.3911    6.1473   55.4376 H       1  ZINC000656860804    0.1200
     26 H26        -2.5019    6.0057   57.8428 H       1  ZINC000656860804    0.1000
     27 H27        -3.9487    5.0379   57.4861 H       1  ZINC000656860804    0.0800
     28 H28        -1.9693    3.8592   58.6497 H       1  ZINC000656860804    0.4000
@<TRIPOS>BOND
     1     1     2    2
     2     2    19   am
     3     2     3    1
     4     3     4    1
     5     3    20    1
     6     3    21    1
     7     4     5   am
     8     4    17    1
     9     5     6    2
    10     5     7    2
    11     5     8    1
    12     8    15   ar
    13     8     9   ar
    14     9    10   ar
    15     9    22    1
    16    10    11    1
    17    10    12   ar
    18    12    13    1
    19    12    14   ar
    20    14    15   ar
    21    14    23    1
    22    15    16    1
    23    17    18    1
    24    17    24    1
    25    17    25    1
    26    18    19    1
    27    18    26    1
    28    18    27    1
    29    19    28    1
@<TRIPOS>SUBSTRUCTURE
     1 ZINC000656860804        1 TEMP              0 ****  ****    0 ROOT


##########                                Name:    ZINC000154446008
##########                DOCK_Rotatable_Bonds:                   5
##########                         Heavy_Atoms:                  24
##########                    Molecular_Weight:              349.41
##########                DOCK_Rotatable_Bonds:                   5
##########                       Formal_Charge:          -0.0199999
##########                     HBond_Acceptors:                   8
##########                        HBond_Donors:                   0
##########                         Heavy_Atoms:                  24
##########                          Grid_Score:          -19.526016
##########                     Grid_vdw_energy:          -19.654804
##########                      Grid_es_energy:            0.128788
##########           Internal_energy_repulsive:           14.022276

@<TRIPOS>MOLECULE
ZINC000154446008
 43 45 1 0 0
SMALL
USER_CHARGES


@<TRIPOS>ATOM
      1 O1        -11.1838    2.9956   51.7754 O.2     1  ZINC000154446008   -0.5000
      2 C2        -10.4502    2.4378   52.5704 C.2     1  ZINC000154446008    0.5900
      3 C3         -9.0718    2.1125   52.1923 C.2     1  ZINC000154446008   -0.2300
      4 C4         -8.6333    0.8888   51.7709 C.2     1  ZINC000154446008   -0.0600
      5 C5         -7.2899    0.8632   51.4802 C.2     1  ZINC000154446008   -0.0500
      6 C6         -6.6487    2.0244   51.6568 C.2     1  ZINC000154446008   -0.2100
      7 N7         -5.2044    2.2316   51.4074 N.pl3   1  ZINC000154446008    0.0500
      8 O8         -4.7467    3.3601   51.3810 O.2     1  ZINC000154446008   -0.1300
      9 O9         -4.4737    1.2737   51.2284 O.2     1  ZINC000154446008   -0.1500
     10 S10        -7.7195    3.2362   52.2011 S.3     1  ZINC000154446008    0.3500
     11 N11       -10.9036    2.1243   53.8003 N.am    1  ZINC000154446008   -0.6100
     12 C12       -12.2850    2.4390   54.1909 C.3     1  ZINC000154446008    0.0800
     13 C13       -12.9658    1.1495   54.6660 C.3     1  ZINC000154446008    0.0900
     14 N14       -12.0878    0.4864   55.6403 N.am    1  ZINC000154446008   -0.6100
     15 C15       -12.5415    0.1721   56.8699 C.2     1  ZINC000154446008    0.5500
     16 O16       -13.6868    0.4371   57.1815 O.2     1  ZINC000154446008   -0.5300
     17 C17       -11.6514   -0.4915   57.8349 C.2     1  ZINC000154446008   -0.1500
     18 C18       -10.7573    0.2434   58.4602 C.2     1  ZINC000154446008   -0.1100
     19 C19        -9.7810   -0.3018   59.4613 C.3     1  ZINC000154446008   -0.1000
     20 C20       -10.2420   -1.6759   59.9521 C.3     1  ZINC000154446008   -0.1200
     21 C21       -10.5732   -2.5430   58.7313 C.3     1  ZINC000154446008   -0.1200
     22 C22       -11.8199   -1.9668   58.0537 C.3     1  ZINC000154446008   -0.0700
     23 C23       -10.7064    0.1717   55.2497 C.3     1  ZINC000154446008    0.1000
     24 C24       -10.0273    1.4562   54.7727 C.3     1  ZINC000154446008    0.1000
     25 H25        -9.2779    0.0275   51.6756 H       1  ZINC000154446008    0.1800
     26 H26        -6.7886   -0.0289   51.1350 H       1  ZINC000154446008    0.1800
     27 H27       -12.2790    3.1691   55.0002 H       1  ZINC000154446008    0.0900
     28 H28       -12.8243    2.8433   53.3343 H       1  ZINC000154446008    0.0900
     29 H29       -13.9186    1.3909   55.1371 H       1  ZINC000154446008    0.1100
     30 H30       -13.1327    0.4890   53.8150 H       1  ZINC000154446008    0.0800
     31 H31       -10.7235    1.3002   58.2402 H       1  ZINC000154446008    0.1100
     32 H32        -8.8000   -0.3951   58.9956 H       1  ZINC000154446008    0.0900
     33 H33        -9.7132    0.3804   60.3087 H       1  ZINC000154446008    0.0800
     34 H34        -9.4451   -2.1450   60.5291 H       1  ZINC000154446008    0.0700
     35 H35       -11.1305   -1.5636   60.5735 H       1  ZINC000154446008    0.0700
     36 H36        -9.7350   -2.5302   58.0347 H       1  ZINC000154446008    0.0700
     37 H37       -10.7713   -3.5659   59.0515 H       1  ZINC000154446008    0.0700
     38 H38       -12.6901   -2.1471   58.6848 H       1  ZINC000154446008    0.0800
     39 H39       -11.9668   -2.4563   57.0909 H       1  ZINC000154446008    0.0700
     40 H40       -10.1671   -0.2325   56.1063 H       1  ZINC000154446008    0.1100
     41 H41       -10.7124   -0.5584   54.4403 H       1  ZINC000154446008    0.0800
     42 H42        -9.0747    1.2133   54.3018 H       1  ZINC000154446008    0.1100
     43 H43        -9.8599    2.1186   55.6219 H       1  ZINC000154446008    0.0800
@<TRIPOS>BOND
     1     1     2    2
     2     2     3    1
     3     2    11   am
     4     3    10    1
     5     3     4    2
     6     4     5    1
     7     4    25    1
     8     5     6    2
     9     5    26    1
    10     6     7    1
    11     6    10    1
    12     7     8    2
    13     7     9    2
    14    11    24    1
    15    11    12    1
    16    12    13    1
    17    12    27    1
    18    12    28    1
    19    13    14    1
    20    13    29    1
    21    13    30    1
    22    14    15   am
    23    14    23    1
    24    15    16    2
    25    15    17    1
    26    17    22    1
    27    17    18    2
    28    18    19    1
    29    18    31    1
    30    19    20    1
    31    19    32    1
    32    19    33    1
    33    20    21    1
    34    20    34    1
    35    20    35    1
    36    21    22    1
    37    21    36    1
    38    21    37    1
    39    22    38    1
    40    22    39    1
    41    23    24    1
    42    23    40    1
    43    23    41    1
    44    24    42    1
    45    24    43    1
@<TRIPOS>SUBSTRUCTURE
     1 ZINC000154446008        1 TEMP              0 ****  ****    0 ROOT


##########                                Name:    ZINC000569288350
##########                DOCK_Rotatable_Bonds:                   3
##########                         Heavy_Atoms:                  19
##########                    Molecular_Weight:             393.559
##########                DOCK_Rotatable_Bonds:                   3
##########                       Formal_Charge:           0.0299999
##########                     HBond_Acceptors:                   5
##########                        HBond_Donors:                   1
##########                         Heavy_Atoms:                  19
##########                          Grid_Score:          -16.923620
##########                     Grid_vdw_energy:          -16.809647
##########                      Grid_es_energy:           -0.113974
##########           Internal_energy_repulsive:            4.040076

@<TRIPOS>MOLECULE
ZINC000569288350
 26 27 1 0 0
SMALL
USER_CHARGES


@<TRIPOS>ATOM
      1 O1        -10.8473   -1.5569   57.6986 O.2     1  ZINC000569288350   -0.4800
      2 C2        -10.9167   -0.4078   58.0899 C.2     1  ZINC000569288350    0.5700
      3 N3        -11.9255   -0.0318   58.9008 N.am    1  ZINC000569288350   -0.6600
      4 C4        -12.8960   -0.9624   59.2876 C.ar    1  ZINC000569288350    0.1800
      5 C5        -12.7234   -1.7061   60.4473 C.ar    1  ZINC000569288350   -0.1200
      6 C6        -13.6827   -2.6246   60.8279 C.ar    1  ZINC000569288350   -0.0600
      7 C7        -14.8148   -2.8053   60.0555 C.ar    1  ZINC000569288350   -0.1500
      8 C8        -14.9919   -2.0659   58.8976 C.ar    1  ZINC000569288350    0.1300
      9 F9        -16.0996   -2.2443   58.1451 F       1  ZINC000569288350   -0.1200
     10 C10       -14.0371   -1.1399   58.5148 C.ar    1  ZINC000569288350   -0.1000
     11 Cl11      -14.2581   -0.2122   57.0643 Cl      1  ZINC000569288350   -0.0400
     12 C12        -9.8927    0.5741   57.6818 C.ar    1  ZINC000569288350   -0.1400
     13 C13       -10.1162    1.4060   56.5800 C.ar    1  ZINC000569288350    0.1400
     14 F14       -11.2711    1.3144   55.8850 F       1  ZINC000569288350   -0.1200
     15 C15        -9.1514    2.3230   56.2046 C.ar    1  ZINC000569288350   -0.1300
     16 C16        -7.9696    2.4172   56.9153 C.ar    1  ZINC000569288350   -0.0600
     17 C17        -7.7422    1.5963   58.0065 C.ar    1  ZINC000569288350   -0.0900
     18 C18        -8.6974    0.6812   58.3977 C.ar    1  ZINC000569288350   -0.0500
     19 I19        -8.3486   -0.5590   60.0498 I       1  ZINC000569288350    0.0000
     20 H20       -11.9786    0.8839   59.2162 H       1  ZINC000569288350    0.4200
     21 H21       -11.8392   -1.5668   61.0517 H       1  ZINC000569288350    0.1600
     22 H22       -13.5477   -3.2027   61.7301 H       1  ZINC000569288350    0.1500
     23 H23       -15.5625   -3.5246   60.3552 H       1  ZINC000569288350    0.1500
     24 H24        -9.3216    2.9666   55.3542 H       1  ZINC000569288350    0.1500
     25 H25        -7.2195    3.1348   56.6176 H       1  ZINC000569288350    0.1500
     26 H26        -6.8161    1.6760   58.5563 H       1  ZINC000569288350    0.1500
@<TRIPOS>BOND
     1     1     2    2
     2     2     3   am
     3     2    12    1
     4     3     4    1
     5     3    20    1
     6     4    10   ar
     7     4     5   ar
     8     5     6   ar
     9     5    21    1
    10     6     7   ar
    11     6    22    1
    12     7     8   ar
    13     7    23    1
    14     8     9    1
    15     8    10   ar
    16    10    11    1
    17    12    18   ar
    18    12    13   ar
    19    13    14    1
    20    13    15   ar
    21    15    16   ar
    22    15    24    1
    23    16    17   ar
    24    16    25    1
    25    17    18   ar
    26    17    26    1
    27    18    19    1
@<TRIPOS>SUBSTRUCTURE
     1 ZINC000569288350        1 TEMP              0 ****  ****    0 ROOT

