
##########                                Name:     oleObject80.pdb
##########                DOCK_Rotatable_Bonds:                  14
##########                         Heavy_Atoms:                  51
##########                    Molecular_Weight:             703.283
##########                DOCK_Rotatable_Bonds:                  14
##########                       Formal_Charge:         0.000299793
##########                     HBond_Acceptors:                  10
##########                        HBond_Donors:                   3
##########                         Heavy_Atoms:                  51
##########                          Grid_Score:          -48.601318
##########                     Grid_vdw_energy:          -48.646893
##########                      Grid_es_energy:            0.045574
##########           Internal_energy_repulsive:           30.775484

@<TRIPOS>MOLECULE
oleObject80.pdb
 94 99 1 0 0
SMALL
NO_CHARGES


@<TRIPOS>ATOM
      1 C         -14.6796   -1.0306   60.1124 C.ar    1  UNL        -0.0620
      2 C         -14.3147    0.2990   60.3670 C.ar    1  UNL        -0.0590
      3 C         -12.9950    0.7386   60.1460 C.ar    1  UNL        -0.0456
      4 C         -12.0222   -0.1726   59.6616 C.ar    1  UNL        -0.0185
      5 C         -12.4065   -1.5082   59.4082 C.ar    1  UNL        -0.0565
      6 C         -13.7240   -1.9344   59.6312 C.ar    1  UNL        -0.0619
      7 C         -10.5702    0.2772   59.4189 C.3     1  UNL         0.0931
      8 C          -9.7437    0.4316   60.7080 C.ar    1  UNL         0.0683
      9 C          -8.7704    1.4534   60.8477 C.ar    1  UNL        -0.0272
     10 C          -8.0474    1.5308   62.0529 C.ar    1  UNL        -0.0559
     11 C          -8.3144    0.6048   63.0714 C.ar    1  UNL        -0.0435
     12 C          -9.3003   -0.3683   62.8529 C.ar    1  UNL         0.0272
     13 N          -9.9969   -0.4504   61.7041 N.ar    1  UNL        -0.2587
     14 C          -8.4863    2.4644   59.7422 C.3     1  UNL        -0.0379
     15 N          -9.8666   -0.4901   58.3508 N.am    1  UNL        -0.2918
     16 C         -10.1616   -0.2634   57.0017 C.2     1  UNL         0.2180
     17 O          -9.7982   -1.0518   56.1440 O.2     1  UNL        -0.2772
     18 C         -11.2367    0.8059   56.6835 C.3     1  UNL         0.0385
     19 C         -12.0661    0.4391   55.4282 C.3     1  UNL        -0.0289
     20 C         -11.2545    0.6211   54.1293 C.3     1  UNL        -0.0010
     21 N         -10.7461    2.0029   53.9936 N.4     1  UNL        -0.3010
     22 C          -9.9242    2.4359   55.1492 C.3     1  UNL        -0.0010
     23 C         -10.6440    2.2292   56.5061 C.3     1  UNL        -0.0289
     24 C         -10.1020    2.2155   52.6784 C.3     1  UNL         0.0222
     25 C          -8.7651    1.4625   52.5194 C.3     1  UNL         0.0661
     26 O          -8.0261    2.0993   51.4619 O.3     1  UNL        -0.3432
     27 C          -6.6644    1.9479   51.2832 C.ar    1  UNL         0.0937
     28 C          -6.0729    0.6868   51.0667 C.ar    1  UNL        -0.0284
     29 C          -4.6835    0.5783   50.8915 C.ar    1  UNL        -0.0381
     30 C          -3.8651    1.7207   50.9146 C.ar    1  UNL         0.0319
     31 C          -4.4551    2.9771   51.1529 C.ar    1  UNL        -0.0194
     32 C          -5.8438    3.0913   51.3303 C.ar    1  UNL         0.0727
     33 CL         -6.5306    4.6788   51.6202 Cl      1  UNL        -0.0814
     34 N          -2.4896    1.5643   50.7537 N.pl3   1  UNL        -0.3136
     35 C          -1.6828    1.5711   49.6163 C.ar    1  UNL         0.0489
     36 C          -2.2573    1.8312   48.3596 C.ar    1  UNL         0.0488
     37 N          -1.5451    1.8745   47.2159 N.ar    1  UNL        -0.2543
     38 C          -0.2086    1.6777   47.2440 C.ar    1  UNL         0.0703
     39 C           0.4502    1.4273   48.4758 C.ar    1  UNL        -0.0339
     40 C          -0.2901    1.3790   49.6681 C.ar    1  UNL        -0.0371
     41 C           0.5189    1.7470   45.9277 C.ar    1  UNL         0.0009
     42 C           0.2965    2.8062   45.0094 C.ar    1  UNL        -0.0402
     43 C           0.9712    2.8822   43.7730 C.ar    1  UNL         0.0375
     44 C           1.8957    1.8700   43.4414 C.ar    1  UNL        -0.0496
     45 C           2.1314    0.8092   44.3269 C.ar    1  UNL        -0.0608
     46 C           1.4518    0.7468   45.5517 C.ar    1  UNL        -0.0528
     47 C           0.6854    4.0360   42.8424 C.2     1  UNL         0.2403
     48 O           0.9314    3.9904   41.6504 O.2     1  UNL        -0.2722
     49 N           0.1239    5.1705   43.3891 N.am    1  UNL        -0.3251
     50 C          -8.8010   -1.4243   58.7786 C.3     1  UNL         0.0037
     51 C         -12.6570    2.1980   60.4369 C.3     1  UNL        -0.0394
     52 H         -15.7007   -1.3581   60.2859 H       1  UNL         0.0623
     53 H         -15.0649    0.9916   60.7383 H       1  UNL         0.0626
     54 H         -11.6884   -2.2275   59.0274 H       1  UNL         0.0627
     55 H         -14.0032   -2.9646   59.4295 H       1  UNL         0.0623
     56 H         -10.6633    1.2964   59.0353 H       1  UNL         0.0626
     57 H          -7.2906    2.2962   62.1990 H       1  UNL         0.0627
     58 H          -7.7711    0.6415   64.0110 H       1  UNL         0.0639
     59 H          -9.5400   -1.1042   63.6192 H       1  UNL         0.0840
     60 H          -8.0285    1.9770   58.8723 H       1  UNL         0.0280
     61 H          -7.7978    3.2492   60.0791 H       1  UNL         0.0280
     62 H          -9.4070    2.9598   59.4101 H       1  UNL         0.0280
     63 H         -11.9154    0.8583   57.5426 H       1  UNL         0.0402
     64 H         -12.9527    1.0846   55.3827 H       1  UNL         0.0288
     65 H         -12.4354   -0.5902   55.4904 H       1  UNL         0.0288
     66 H         -11.9019    0.3759   53.2774 H       1  UNL         0.0431
     67 H         -10.4161   -0.0888   54.1248 H       1  UNL         0.0431
     68 H          -9.6751    3.5000   55.0628 H       1  UNL         0.0431
     69 H          -8.9780    1.8806   55.1503 H       1  UNL         0.0431
     70 H         -11.4626    2.9576   56.5726 H       1  UNL         0.0288
     71 H          -9.9574    2.4576   57.3312 H       1  UNL         0.0288
     72 H          -9.8991    3.2862   52.5457 H       1  UNL         0.0455
     73 H         -10.7837    1.9073   51.8748 H       1  UNL         0.0455
     74 H          -8.9506    0.4115   52.2666 H       1  UNL         0.0586
     75 H          -8.2029    1.5142   53.4605 H       1  UNL         0.0586
     76 H          -6.6761   -0.2146   51.0340 H       1  UNL         0.0652
     77 H          -4.2414   -0.4005   50.7266 H       1  UNL         0.0644
     78 H          -3.8400    3.8686   51.2231 H       1  UNL         0.0659
     79 H          -1.9858    1.4101   51.6177 H       1  UNL         0.1528
     80 H          -3.3286    2.0022   48.2626 H       1  UNL         0.0861
     81 H           1.5211    1.2619   48.5168 H       1  UNL         0.0646
     82 H           0.2197    1.2135   50.6120 H       1  UNL         0.0644
     83 H          -0.4268    3.5776   45.2497 H       1  UNL         0.0638
     84 H           2.4363    1.8915   42.5004 H       1  UNL         0.0631
     85 H           2.8444    0.0326   44.0644 H       1  UNL         0.0623
     86 H           1.6620   -0.0847   46.2184 H       1  UNL         0.0630
     87 H          -0.0837    5.9666   42.8013 H       1  UNL         0.1458
     88 H          -0.0759    5.1902   44.3810 H       1  UNL         0.1458
     89 H          -8.7683   -1.5345   59.8675 H       1  UNL         0.0433
     90 H          -7.8219   -1.0559   58.4514 H       1  UNL         0.0433
     91 H          -8.9803   -2.4117   58.3352 H       1  UNL         0.0433
     92 H         -13.5396    2.7619   60.7637 H       1  UNL         0.0280
     93 H         -12.2654    2.7009   59.5444 H       1  UNL         0.0280
     94 H         -11.9063    2.2810   61.2324 H       1  UNL         0.0280
@<TRIPOS>BOND
     1     1     2   ar
     2     1     6   ar
     3     1    52    1
     4     2     3   ar
     5     2    53    1
     6     3     4   ar
     7     3    51    1
     8     4     5   ar
     9     4     7    1
    10     5     6   ar
    11     5    54    1
    12     6    55    1
    13     7     8    1
    14     7    15    1
    15     7    56    1
    16     8     9   ar
    17     8    13   ar
    18     9    10   ar
    19     9    14    1
    20    10    11   ar
    21    10    57    1
    22    11    12   ar
    23    11    58    1
    24    12    13   ar
    25    12    59    1
    26    14    60    1
    27    14    61    1
    28    14    62    1
    29    15    16   am
    30    15    50    1
    31    16    17    2
    32    16    18    1
    33    18    19    1
    34    18    23    1
    35    18    63    1
    36    19    20    1
    37    19    64    1
    38    19    65    1
    39    20    21    1
    40    20    66    1
    41    20    67    1
    42    21    22    1
    43    21    24    1
    44    22    23    1
    45    22    68    1
    46    22    69    1
    47    23    70    1
    48    23    71    1
    49    24    25    1
    50    24    72    1
    51    24    73    1
    52    25    26    1
    53    25    74    1
    54    25    75    1
    55    26    27    1
    56    27    28   ar
    57    27    32   ar
    58    28    29   ar
    59    28    76    1
    60    29    30   ar
    61    29    77    1
    62    30    31   ar
    63    30    34    1
    64    31    32   ar
    65    31    78    1
    66    32    33    1
    67    34    35    1
    68    34    79    1
    69    35    36   ar
    70    35    40   ar
    71    36    37   ar
    72    36    80    1
    73    37    38   ar
    74    38    39   ar
    75    38    41    1
    76    39    40   ar
    77    39    81    1
    78    40    82    1
    79    41    42   ar
    80    41    46   ar
    81    42    43   ar
    82    42    83    1
    83    43    44   ar
    84    43    47    1
    85    44    45   ar
    86    44    84    1
    87    45    46   ar
    88    45    85    1
    89    46    86    1
    90    47    48    2
    91    47    49   am
    92    49    87    1
    93    49    88    1
    94    50    89    1
    95    50    90    1
    96    50    91    1
    97    51    92    1
    98    51    93    1
    99    51    94    1
@<TRIPOS>SUBSTRUCTURE
     1 UNL         1 TEMP              0 ****  ****    0 ROOT


##########                                Name:     oleObject79.pdb
##########                DOCK_Rotatable_Bonds:                  12
##########                         Heavy_Atoms:                  53
##########                    Molecular_Weight:             725.376
##########                DOCK_Rotatable_Bonds:                  12
##########                       Formal_Charge:          0.00050066
##########                     HBond_Acceptors:                   8
##########                        HBond_Donors:                   4
##########                         Heavy_Atoms:                  53
##########                          Grid_Score:          -44.323818
##########                     Grid_vdw_energy:          -43.973915
##########                      Grid_es_energy:           -0.349904
##########           Internal_energy_repulsive:           32.722736

@<TRIPOS>MOLECULE
oleObject79.pdb
 102 108 1 0 0
SMALL
NO_CHARGES


@<TRIPOS>ATOM
      1 C          -8.7566    2.6765   63.8909 C.ar    1  UNL        -0.0620
      2 C          -8.3755    1.3745   63.5380 C.ar    1  UNL        -0.0590
      3 C          -8.6376    0.8702   62.2490 C.ar    1  UNL        -0.0456
      4 C          -9.2934    1.6899   61.2924 C.ar    1  UNL        -0.0185
      5 C          -9.6687    2.9983   61.6673 C.ar    1  UNL        -0.0565
      6 C          -9.4045    3.4893   62.9538 C.ar    1  UNL        -0.0619
      7 C          -9.5585    1.2131   59.8500 C.3     1  UNL         0.0931
      8 C         -10.5915    0.0785   59.7170 C.ar    1  UNL         0.0683
      9 C         -10.5049   -0.8801   58.6751 C.ar    1  UNL        -0.0272
     10 C         -11.4818   -1.8915   58.6108 C.ar    1  UNL        -0.0559
     11 C         -12.5009   -1.9205   59.5734 C.ar    1  UNL        -0.0435
     12 C         -12.5100   -0.9350   60.5710 C.ar    1  UNL         0.0272
     13 N         -11.5812    0.0367   60.6396 N.ar    1  UNL        -0.2587
     14 C          -9.3954   -0.8490   57.6288 C.3     1  UNL        -0.0379
     15 N          -9.7804    2.3646   58.9312 N.am    1  UNL        -0.2918
     16 C          -8.6963    3.0119   58.3343 C.2     1  UNL         0.2179
     17 O          -7.5726    2.8666   58.7861 O.2     1  UNL        -0.2772
     18 C          -9.0295    4.2005   57.3928 C.3     1  UNL         0.0361
     19 C          -9.3865    3.7545   55.9458 C.3     1  UNL        -0.0412
     20 C          -8.1616    3.2808   55.1154 C.3     1  UNL        -0.0453
     21 C          -6.9622    4.2751   55.1131 C.3     1  UNL        -0.0139
     22 C          -5.7155    3.5406   54.5466 C.3     1  UNL         0.0171
     23 N          -4.5679    4.4619   54.4211 N.pl3   1  UNL        -0.3290
     24 C          -4.8032    5.5930   53.5025 C.3     1  UNL         0.0115
     25 C          -6.0454    6.4029   53.9432 C.3     1  UNL        -0.0368
     26 C          -7.2746    5.4906   54.1824 C.3     1  UNL        -0.0446
     27 C          -3.3102    4.1458   54.9455 C.ar    1  UNL         0.0476
     28 C          -3.0801    4.3259   56.3235 C.ar    1  UNL        -0.0375
     29 C          -1.8255    4.0505   56.8885 C.ar    1  UNL        -0.0388
     30 C          -0.7629    3.6092   56.0850 C.ar    1  UNL         0.0318
     31 C          -0.9889    3.4097   54.7107 C.ar    1  UNL        -0.0202
     32 C          -2.2444    3.6790   54.1400 C.ar    1  UNL         0.0636
     33 CL         -2.3910    3.4750   52.4027 Cl      1  UNL        -0.0822
     34 N           0.4688    3.3459   56.6809 N.pl3   1  UNL        -0.3149
     35 C           0.8166    2.5526   57.7729 C.ar    1  UNL         0.0302
     36 C          -0.0634    1.6002   58.3190 C.ar    1  UNL        -0.0402
     37 C           0.3325    0.8003   59.4029 C.ar    1  UNL        -0.0525
     38 C           1.6240    0.9194   59.9735 C.ar    1  UNL        -0.0182
     39 C           2.5036    1.8704   59.3991 C.ar    1  UNL        -0.0525
     40 C           2.1083    2.6664   58.3117 C.ar    1  UNL        -0.0402
     41 C           2.0486    0.0653   61.1329 C.ar    1  UNL        -0.0177
     42 C           1.3947   -1.1594   61.4230 C.ar    1  UNL        -0.0439
     43 C           1.7794   -1.9730   62.5110 C.ar    1  UNL         0.0111
     44 C           2.8459   -1.5466   63.3293 C.ar    1  UNL        -0.0518
     45 C           3.5094   -0.3405   63.0625 C.ar    1  UNL        -0.0609
     46 C           3.1166    0.4557   61.9770 C.ar    1  UNL        -0.0543
     47 C           1.1193   -3.1784   62.7705 C.2     1  UNL         0.1014
     48 N           1.2347   -3.7961   63.8882 N.3     1  UNL        -0.2892
     49 N           0.3339   -3.7453   61.8445 N.3     1  UNL        -0.2870
     50 C          -6.6560    4.7204   56.5770 C.3     1  UNL        -0.0453
     51 C          -7.8913    5.2524   57.3347 C.3     1  UNL        -0.0412
     52 C         -11.1749    2.7723   58.6523 C.3     1  UNL         0.0037
     53 C          -8.1754   -0.5471   61.9277 C.3     1  UNL        -0.0394
     54 H          -8.5470    3.0566   64.8861 H       1  UNL         0.0623
     55 H          -7.8668    0.7552   64.2711 H       1  UNL         0.0626
     56 H         -10.1699    3.6453   60.9552 H       1  UNL         0.0627
     57 H          -9.6995    4.4996   63.2215 H       1  UNL         0.0623
     58 H          -8.6333    0.7449   59.5103 H       1  UNL         0.0626
     59 H         -11.4521   -2.6445   57.8284 H       1  UNL         0.0627
     60 H         -13.2665   -2.6903   59.5484 H       1  UNL         0.0639
     61 H         -13.2826   -0.9221   61.3388 H       1  UNL         0.0840
     62 H          -9.4215    0.0823   57.0502 H       1  UNL         0.0280
     63 H          -9.4892   -1.6774   56.9157 H       1  UNL         0.0280
     64 H          -8.4061   -0.9323   58.0953 H       1  UNL         0.0280
     65 H          -9.9215    4.6859   57.8074 H       1  UNL         0.0401
     66 H          -9.8579    4.5978   55.4254 H       1  UNL         0.0275
     67 H         -10.1405    2.9575   55.9774 H       1  UNL         0.0275
     68 H          -8.4826    3.0794   54.0852 H       1  UNL         0.0273
     69 H          -7.8200    2.3148   55.5053 H       1  UNL         0.0273
     70 H          -5.9536    3.1210   53.5604 H       1  UNL         0.0474
     71 H          -5.4605    2.7033   55.2095 H       1  UNL         0.0474
     72 H          -4.9730    5.2030   52.4908 H       1  UNL         0.0468
     73 H          -3.9275    6.2520   53.4567 H       1  UNL         0.0468
     74 H          -6.2850    7.1513   53.1776 H       1  UNL         0.0283
     75 H          -5.8155    6.9603   54.8589 H       1  UNL         0.0283
     76 H          -7.6081    5.1144   53.2063 H       1  UNL         0.0273
     77 H          -8.1040    6.0898   54.5755 H       1  UNL         0.0273
     78 H          -3.8824    4.6755   56.9669 H       1  UNL         0.0644
     79 H          -1.6751    4.1967   57.9544 H       1  UNL         0.0643
     80 H          -0.1902    3.0398   54.0753 H       1  UNL         0.0659
     81 H           1.2543    3.7958   56.2286 H       1  UNL         0.1528
     82 H          -1.0522    1.4594   57.8965 H       1  UNL         0.0643
     83 H          -0.3807    0.0894   59.8081 H       1  UNL         0.0630
     84 H           3.5125    1.9818   59.7834 H       1  UNL         0.0630
     85 H           2.8097    3.3806   57.8895 H       1  UNL         0.0643
     86 H           0.5791   -1.4852   60.7849 H       1  UNL         0.0637
     87 H           3.1751   -2.1532   64.1685 H       1  UNL         0.0630
     88 H           4.3296   -0.0212   63.6993 H       1  UNL         0.0623
     89 H           3.6362    1.3930   61.8039 H       1  UNL         0.0629
     90 H           0.4689   -3.5485   64.5185 H       1  UNL         0.1889
     91 H          -0.1577   -3.1620   61.1697 H       1  UNL         0.1258
     92 H           0.6600   -4.5737   61.3500 H       1  UNL         0.1258
     93 H          -5.8676    5.4808   56.6041 H       1  UNL         0.0273
     94 H          -6.2570    3.8613   57.1284 H       1  UNL         0.0273
     95 H          -8.2612    6.1605   56.8439 H       1  UNL         0.0275
     96 H          -7.5928    5.5646   58.3408 H       1  UNL         0.0275
     97 H         -11.3083    3.8460   58.8252 H       1  UNL         0.0433
     98 H         -11.8855    2.2400   59.2948 H       1  UNL         0.0433
     99 H         -11.4145    2.5490   57.6054 H       1  UNL         0.0433
    100 H          -7.7531   -1.0475   62.8080 H       1  UNL         0.0280
    101 H          -7.3982   -0.5403   61.1531 H       1  UNL         0.0280
    102 H          -9.0098   -1.1644   61.5721 H       1  UNL         0.0280
@<TRIPOS>BOND
     1     1     2   ar
     2     1     6   ar
     3     1    54    1
     4     2     3   ar
     5     2    55    1
     6     3     4   ar
     7     3    53    1
     8     4     5   ar
     9     4     7    1
    10     5     6   ar
    11     5    56    1
    12     6    57    1
    13     7     8    1
    14     7    15    1
    15     7    58    1
    16     8     9   ar
    17     8    13   ar
    18     9    10   ar
    19     9    14    1
    20    10    11   ar
    21    10    59    1
    22    11    12   ar
    23    11    60    1
    24    12    13   ar
    25    12    61    1
    26    14    62    1
    27    14    63    1
    28    14    64    1
    29    15    16   am
    30    15    52    1
    31    16    17    2
    32    16    18    1
    33    18    19    1
    34    18    51    1
    35    18    65    1
    36    19    20    1
    37    19    66    1
    38    19    67    1
    39    20    21    1
    40    20    68    1
    41    20    69    1
    42    21    22    1
    43    21    26    1
    44    21    50    1
    45    22    23    1
    46    22    70    1
    47    22    71    1
    48    23    24    1
    49    23    27    1
    50    24    25    1
    51    24    72    1
    52    24    73    1
    53    25    26    1
    54    25    74    1
    55    25    75    1
    56    26    76    1
    57    26    77    1
    58    27    28   ar
    59    27    32   ar
    60    28    29   ar
    61    28    78    1
    62    29    30   ar
    63    29    79    1
    64    30    31   ar
    65    30    34    1
    66    31    32   ar
    67    31    80    1
    68    32    33    1
    69    34    35    1
    70    34    81    1
    71    35    36   ar
    72    35    40   ar
    73    36    37   ar
    74    36    82    1
    75    37    38   ar
    76    37    83    1
    77    38    39   ar
    78    38    41    1
    79    39    40   ar
    80    39    84    1
    81    40    85    1
    82    41    42   ar
    83    41    46   ar
    84    42    43   ar
    85    42    86    1
    86    43    44   ar
    87    43    47    1
    88    44    45   ar
    89    44    87    1
    90    45    46   ar
    91    45    88    1
    92    46    89    1
    93    47    48    1
    94    47    49    1
    95    48    90    1
    96    49    91    1
    97    49    92    1
    98    50    51    1
    99    50    93    1
   100    50    94    1
   101    51    95    1
   102    51    96    1
   103    52    97    1
   104    52    98    1
   105    52    99    1
   106    53   100    1
   107    53   101    1
   108    53   102    1
@<TRIPOS>SUBSTRUCTURE
     1 UNL         1 TEMP              0 ****  ****    0 ROOT


##########                                Name:     oleObject70.pdb
##########                DOCK_Rotatable_Bonds:                   9
##########                         Heavy_Atoms:                  35
##########                    Molecular_Weight:             504.458
##########                DOCK_Rotatable_Bonds:                   9
##########                       Formal_Charge:          0.00010002
##########                     HBond_Acceptors:                   6
##########                        HBond_Donors:                   2
##########                         Heavy_Atoms:                  35
##########                          Grid_Score:          -41.894070
##########                     Grid_vdw_energy:          -42.123974
##########                      Grid_es_energy:            0.229905
##########           Internal_energy_repulsive:           13.565643

@<TRIPOS>MOLECULE
oleObject70.pdb
 62 65 1 0 0
SMALL
NO_CHARGES


@<TRIPOS>ATOM
      1 C          -1.1804    1.6875   65.2260 C.ar    1  UNL        -0.0620
      2 C           0.1548    1.2925   65.3911 C.ar    1  UNL        -0.0590
      3 C           0.9245    0.8760   64.2875 C.ar    1  UNL        -0.0456
      4 C           0.3472    0.8650   62.9920 C.ar    1  UNL        -0.0187
      5 C          -1.0029    1.2514   62.8450 C.ar    1  UNL        -0.0565
      6 C          -1.7608    1.6621   63.9515 C.ar    1  UNL        -0.0619
      7 C           1.1572    0.4165   61.7625 C.3     1  UNL         0.0909
      8 C           1.3964   -1.1017   61.6916 C.ar    1  UNL         0.0681
      9 C           2.6990   -1.6476   61.5647 C.ar    1  UNL        -0.0272
     10 C           2.8352   -3.0474   61.5017 C.ar    1  UNL        -0.0559
     11 C           1.6877   -3.8502   61.5705 C.ar    1  UNL        -0.0435
     12 C           0.4385   -3.2264   61.7032 C.ar    1  UNL         0.0272
     13 N           0.2980   -1.8893   61.7647 N.ar    1  UNL        -0.2587
     14 C           3.9461   -0.7736   61.4889 C.3     1  UNL        -0.0379
     15 N           0.6749    1.0267   60.5038 N.am    1  UNL        -0.2987
     16 C           1.4479    1.6652   59.5418 C.2     1  UNL         0.2437
     17 O           2.6572    1.7821   59.6409 O.2     1  UNL        -0.2719
     18 C           0.7074    2.2049   58.3414 C.ar    1  UNL         0.0371
     19 C          -0.6829    2.0191   58.1699 C.ar    1  UNL        -0.0494
     20 C          -1.3402    2.5363   57.0414 C.ar    1  UNL        -0.0570
     21 C          -0.6246    3.2471   56.0638 C.ar    1  UNL        -0.0341
     22 C           0.7573    3.4385   56.2276 C.ar    1  UNL        -0.0570
     23 C           1.4162    2.9213   57.3547 C.ar    1  UNL        -0.0494
     24 C          -1.3403    3.8114   54.8480 C.3     1  UNL         0.0208
     25 N          -0.5710    3.5787   53.6192 N.4     1  UNL        -0.3086
     26 C          -1.2243    4.0869   52.4057 C.3     1  UNL         0.0223
     27 C          -2.2532    3.0999   51.8706 C.ar    1  UNL        -0.0154
     28 C          -3.6117    3.2753   52.1965 C.ar    1  UNL        -0.0548
     29 C          -4.5820    2.3826   51.7126 C.ar    1  UNL        -0.0431
     30 C          -4.1991    1.3071   50.8964 C.ar    1  UNL         0.0421
     31 C          -2.8479    1.1247   50.5627 C.ar    1  UNL        -0.0245
     32 C          -1.8760    2.0172   51.0462 C.ar    1  UNL         0.0465
     33 CL         -0.2018    1.7525   50.5939 Cl      1  UNL        -0.0839
     34 CL         -5.4077    0.1941   50.2917 Cl      1  UNL        -0.0843
     35 C           2.3630    0.4308   64.5321 C.3     1  UNL        -0.0394
     36 H          -1.7658    2.0025   66.0849 H       1  UNL         0.0623
     37 H           0.5908    1.3048   66.3862 H       1  UNL         0.0626
     38 H          -1.4791    1.2256   61.8706 H       1  UNL         0.0627
     39 H          -2.7984    1.9551   63.8202 H       1  UNL         0.0623
     40 H           2.1508    0.8569   61.8878 H       1  UNL         0.0624
     41 H           3.8141   -3.5069   61.3990 H       1  UNL         0.0627
     42 H           1.7634   -4.9323   61.5220 H       1  UNL         0.0639
     43 H          -0.4776   -3.8126   61.7601 H       1  UNL         0.0840
     44 H           3.9444   -0.1607   60.5795 H       1  UNL         0.0280
     45 H           4.8614   -1.3783   61.4722 H       1  UNL         0.0280
     46 H           4.0161   -0.1032   62.3540 H       1  UNL         0.0280
     47 H          -0.3193    0.9805   60.3291 H       1  UNL         0.1508
     48 H          -1.2698    1.4753   58.9030 H       1  UNL         0.0631
     49 H          -2.4106    2.3873   56.9280 H       1  UNL         0.0626
     50 H           1.3226    3.9911   55.4822 H       1  UNL         0.0626
     51 H           2.4855    3.0832   57.4590 H       1  UNL         0.0631
     52 H          -1.4966    4.8887   54.9903 H       1  UNL         0.0479
     53 H          -2.3287    3.3414   54.7615 H       1  UNL         0.0479
     54 H          -0.4058    2.5778   53.5142 H       1  UNL         0.1229
     55 H          -0.4671    4.2747   51.6335 H       1  UNL         0.0480
     56 H          -1.7156    5.0452   52.6178 H       1  UNL         0.0480
     57 H          -3.9173    4.1081   52.8240 H       1  UNL         0.0627
     58 H          -5.6278    2.5263   51.9691 H       1  UNL         0.0639
     59 H          -2.5540    0.2935   49.9281 H       1  UNL         0.0654
     60 H           2.5899    0.3623   65.6034 H       1  UNL         0.0280
     61 H           3.0751    1.1392   64.0909 H       1  UNL         0.0280
     62 H           2.5515   -0.5592   64.0983 H       1  UNL         0.0280
@<TRIPOS>BOND
     1     1     2   ar
     2     1     6   ar
     3     1    36    1
     4     2     3   ar
     5     2    37    1
     6     3     4   ar
     7     3    35    1
     8     4     5   ar
     9     4     7    1
    10     5     6   ar
    11     5    38    1
    12     6    39    1
    13     7     8    1
    14     7    15    1
    15     7    40    1
    16     8     9   ar
    17     8    13   ar
    18     9    10   ar
    19     9    14    1
    20    10    11   ar
    21    10    41    1
    22    11    12   ar
    23    11    42    1
    24    12    13   ar
    25    12    43    1
    26    14    44    1
    27    14    45    1
    28    14    46    1
    29    15    16   am
    30    15    47    1
    31    16    17    2
    32    16    18    1
    33    18    19   ar
    34    18    23   ar
    35    19    20   ar
    36    19    48    1
    37    20    21   ar
    38    20    49    1
    39    21    22   ar
    40    21    24    1
    41    22    23   ar
    42    22    50    1
    43    23    51    1
    44    24    25    1
    45    24    52    1
    46    24    53    1
    47    25    26    1
    48    25    54    1
    49    26    27    1
    50    26    55    1
    51    26    56    1
    52    27    28   ar
    53    27    32   ar
    54    28    29   ar
    55    28    57    1
    56    29    30   ar
    57    29    58    1
    58    30    31   ar
    59    30    34    1
    60    31    32   ar
    61    31    59    1
    62    32    33    1
    63    35    60    1
    64    35    61    1
    65    35    62    1
@<TRIPOS>SUBSTRUCTURE
     1 UNL         1 TEMP              0 ****  ****    0 ROOT


##########                                Name:    ZINC000489986384
##########                DOCK_Rotatable_Bonds:                  11
##########                         Heavy_Atoms:                  31
##########                    Molecular_Weight:             415.492
##########                DOCK_Rotatable_Bonds:                  11
##########                       Formal_Charge:          -0.0499997
##########                     HBond_Acceptors:                   6
##########                        HBond_Donors:                   2
##########                         Heavy_Atoms:                  31
##########                          Grid_Score:          -41.044304
##########                     Grid_vdw_energy:          -38.907509
##########                      Grid_es_energy:           -2.136794
##########           Internal_energy_repulsive:            8.619256

@<TRIPOS>MOLECULE
ZINC000489986384
 56 59 1 0 0
SMALL
USER_CHARGES


@<TRIPOS>ATOM
      1 O1         -0.2638    3.2918   52.6080 O.2     1  ZINC000489986384   -0.5000
      2 C2         -1.4507    3.5405   52.6221 C.2     1  ZINC000489986384    0.4900
      3 C3         -2.1935    3.7432   51.3266 C.3     1  ZINC000489986384    0.0900
      4 N4         -2.8145    2.4811   50.9171 N.pl3   1  ZINC000489986384   -0.4700
      5 C5         -4.1128    2.0872   51.1725 C.ar    1  ZINC000489986384    0.0700
      6 C6         -5.1868    2.6674   51.8330 C.ar    1  ZINC000489986384   -0.1100
      7 C7         -6.3854    1.9903   51.9141 C.ar    1  ZINC000489986384   -0.0900
      8 C8         -6.5237    0.7346   51.3407 C.ar    1  ZINC000489986384   -0.1300
      9 C9         -5.4771    0.1477   50.6870 C.ar    1  ZINC000489986384   -0.0600
     10 C10        -4.2536    0.8153   50.5915 C.ar    1  ZINC000489986384    0.0500
     11 N11        -3.0595    0.5055   50.0242 N.2     1  ZINC000489986384   -0.4600
     12 C12        -2.2206    1.4825   50.2094 C.2     1  ZINC000489986384    0.2800
     13 C13        -0.7950    1.5005   49.7212 C.3     1  ZINC000489986384    0.1400
     14 O14        -0.6089    0.4634   48.7559 O.3     1  ZINC000489986384   -0.3000
     15 C15        -0.2564    0.8453   47.5001 C.ar    1  ZINC000489986384    0.1300
     16 C16         1.0076    0.5474   47.0124 C.ar    1  ZINC000489986384   -0.2100
     17 C17         1.3633    0.9362   45.7354 C.ar    1  ZINC000489986384   -0.0800
     18 C18         0.4608    1.6223   44.9438 C.ar    1  ZINC000489986384   -0.1600
     19 C19        -0.7994    1.9208   45.4278 C.ar    1  ZINC000489986384   -0.0800
     20 C20        -1.1621    1.5288   46.7019 C.ar    1  ZINC000489986384   -0.1500
     21 N21        -2.1067    3.6301   53.7960 N.am    1  ZINC000489986384   -0.7300
     22 C22        -1.3846    3.4331   55.0554 C.3     1  ZINC000489986384    0.1300
     23 C23        -2.1064    4.1793   56.1792 C.3     1  ZINC000489986384   -0.0600
     24 H24        -2.1876    5.2352   55.9208 H       1  ZINC000489986384    0.0900
     25 C25        -3.5063    3.5907   56.3652 C.3     1  ZINC000489986384    0.0800
     26 O26        -4.3848    4.6002   56.8667 O.3     1  ZINC000489986384   -0.5700
     27 C27        -1.3262    4.0344   57.4604 C.ar    1  ZINC000489986384   -0.0700
     28 C28        -1.0357    2.7764   57.9541 C.ar    1  ZINC000489986384   -0.1100
     29 C29        -0.3200    2.6435   59.1294 C.ar    1  ZINC000489986384   -0.1200
     30 C30         0.1053    3.7686   59.8106 C.ar    1  ZINC000489986384   -0.1200
     31 C31        -0.1845    5.0266   59.3164 C.ar    1  ZINC000489986384   -0.1200
     32 C32        -0.8964    5.1595   58.1389 C.ar    1  ZINC000489986384   -0.1100
     33 H33        -2.9658    4.5000   51.4651 H       1  ZINC000489986384    0.1200
     34 H34        -1.4966    4.0721   50.5557 H       1  ZINC000489986384    0.1200
     35 H35        -5.0842    3.6444   52.2817 H       1  ZINC000489986384    0.1200
     36 H36        -7.2219    2.4404   52.4277 H       1  ZINC000489986384    0.1300
     37 H37        -7.4680    0.2154   51.4121 H       1  ZINC000489986384    0.1300
     38 H38        -5.5955   -0.8305   50.2449 H       1  ZINC000489986384    0.1300
     39 H39        -0.5799    2.4660   49.2633 H       1  ZINC000489986384    0.0800
     40 H40        -0.1207    1.3391   50.5623 H       1  ZINC000489986384    0.1000
     41 H41         1.7131    0.0121   47.6306 H       1  ZINC000489986384    0.1300
     42 H42         2.3472    0.7045   45.3552 H       1  ZINC000489986384    0.1300
     43 H43         0.7409    1.9257   43.9458 H       1  ZINC000489986384    0.1200
     44 H44        -1.5026    2.4570   44.8076 H       1  ZINC000489986384    0.1300
     45 H45        -2.1467    1.7622   47.0794 H       1  ZINC000489986384    0.1300
     46 H46        -3.0568    3.8251   53.8070 H       1  ZINC000489986384    0.4000
     47 H47        -1.3479    2.3695   55.2906 H       1  ZINC000489986384    0.0800
     48 H48        -0.3699    3.8186   54.9566 H       1  ZINC000489986384    0.0800
     49 H49        -3.8786    3.2286   55.4069 H       1  ZINC000489986384    0.0500
     50 H50        -3.4615    2.7635   57.0736 H       1  ZINC000489986384    0.0500
     51 H51        -4.1396    4.9367   57.7396 H       1  ZINC000489986384    0.3800
     52 H52        -1.3680    1.8974   57.4219 H       1  ZINC000489986384    0.1200
     53 H53        -0.0936    1.6606   59.5155 H       1  ZINC000489986384    0.1200
     54 H54         0.6639    3.6647   60.7291 H       1  ZINC000489986384    0.1200
     55 H55         0.1476    5.9056   59.8488 H       1  ZINC000489986384    0.1200
     56 H56        -1.1228    6.1424   57.7528 H       1  ZINC000489986384    0.1200
@<TRIPOS>BOND
     1     1     2    2
     2     2     3    1
     3     2    21   am
     4     3     4    1
     5     3    33    1
     6     3    34    1
     7     4    12    1
     8     4     5    1
     9     5    10   ar
    10     5     6   ar
    11     6     7   ar
    12     6    35    1
    13     7     8   ar
    14     7    36    1
    15     8     9   ar
    16     8    37    1
    17     9    10   ar
    18     9    38    1
    19    10    11    1
    20    11    12    2
    21    12    13    1
    22    13    14    1
    23    13    39    1
    24    13    40    1
    25    14    15    1
    26    15    20   ar
    27    15    16   ar
    28    16    17   ar
    29    16    41    1
    30    17    18   ar
    31    17    42    1
    32    18    19   ar
    33    18    43    1
    34    19    20   ar
    35    19    44    1
    36    20    45    1
    37    21    22    1
    38    21    46    1
    39    22    23    1
    40    22    47    1
    41    22    48    1
    42    23    24    1
    43    23    25    1
    44    23    27    1
    45    25    26    1
    46    25    49    1
    47    25    50    1
    48    26    51    1
    49    27    32   ar
    50    27    28   ar
    51    28    29   ar
    52    28    52    1
    53    29    30   ar
    54    29    53    1
    55    30    31   ar
    56    30    54    1
    57    31    32   ar
    58    31    55    1
    59    32    56    1
@<TRIPOS>SUBSTRUCTURE
     1 ZINC000489986384        1 TEMP              0 ****  ****    0 ROOT


##########                                Name:    ZINC001591898574
##########                DOCK_Rotatable_Bonds:                  10
##########                         Heavy_Atoms:                  26
##########                    Molecular_Weight:             383.434
##########                DOCK_Rotatable_Bonds:                  10
##########                       Formal_Charge:         5.96046e-08
##########                     HBond_Acceptors:                  13
##########                        HBond_Donors:                   3
##########                         Heavy_Atoms:                  26
##########                          Grid_Score:          -40.069382
##########                     Grid_vdw_energy:          -35.858566
##########                      Grid_es_energy:           -4.210816
##########           Internal_energy_repulsive:            7.884578

@<TRIPOS>MOLECULE
ZINC001591898574
 47 48 1 0 0
SMALL
USER_CHARGES


@<TRIPOS>ATOM
      1 C1         -0.1646    2.1361   49.4321 C.3     1  ZINC001591898574   -0.1100
      2 C2         -1.3325    2.3797   50.3529 C.ar    1  ZINC001591898574    0.2300
      3 C3         -2.5080    1.6672   50.1951 C.ar    1  ZINC001591898574   -0.2400
      4 C4         -3.5651    1.9247   51.0712 C.ar    1  ZINC001591898574    0.3000
      5 C5         -4.8462    1.1866   50.9435 C.2     1  ZINC001591898574    0.2100
      6 N6         -5.1153    0.2180   50.0906 N.2     1  ZINC001591898574   -0.2500
      7 N7         -6.3297   -0.1617   50.2955 N.pl3   1  ZINC001591898574   -0.2200
      8 N8         -6.8386    0.5353   51.2506 N.2     1  ZINC001591898574   -0.0400
      9 N9         -5.9533    1.3713   51.6767 N.2     1  ZINC001591898574   -0.2500
     10 N10        -3.4057    2.8415   52.0223 N.ar    1  ZINC001591898574   -0.5500
     11 C11        -2.2637    3.5009   52.1386 C.ar    1  ZINC001591898574    0.5800
     12 N12        -2.1309    4.4482   53.1390 N.pl3   1  ZINC001591898574   -0.7000
     13 C13        -2.4446    4.0974   54.5264 C.3     1  ZINC001591898574    0.1400
     14 C14        -1.2585    3.3550   55.1453 C.3     1  ZINC001591898574   -0.1500
     15 C15        -1.5961    2.9657   56.5860 C.3     1  ZINC001591898574    0.1200
     16 N16        -0.5579    2.0728   57.1066 N.am    1  ZINC001591898574   -0.7300
     17 C17        -0.3526    1.9807   58.4354 C.2     1  ZINC001591898574    0.4900
     18 O18        -1.0283    2.6360   59.2003 O.2     1  ZINC001591898574   -0.5300
     19 C19         0.7166    1.0636   58.9709 C.3     1  ZINC001591898574    0.1000
     20 N20         1.2202    1.5903   60.2418 N.am    1  ZINC001591898574   -0.9800
     21 C21         2.1353    2.7343   60.2495 C.3     1  ZINC001591898574    0.1000
     22 S22         0.7550    0.8925   61.6698 S.o2    1  ZINC001591898574    2.6100
     23 C23         1.3236   -0.8253   61.5404 C.3     1  ZINC001591898574   -0.6600
     24 O24         1.4983    1.5906   62.6594 O.2     1  ZINC001591898574   -0.9500
     25 O25        -0.6645    0.9513   61.6425 O.2     1  ZINC001591898574   -0.9600
     26 N26        -1.2428    3.2736   51.3250 N.ar    1  ZINC001591898574   -0.5600
     27 H27         0.4671    1.3504   49.8464 H       1  ZINC001591898574    0.0900
     28 H28        -0.5319    1.8285   48.4530 H       1  ZINC001591898574    0.0900
     29 H29         0.4157    3.0532   49.3308 H       1  ZINC001591898574    0.0900
     30 H30        -2.6061    0.9295   49.4124 H       1  ZINC001591898574    0.1600
     31 H31        -6.7884   -0.8627   49.8065 H       1  ZINC001591898574    0.4800
     32 H32        -1.8300    5.3443   52.9215 H       1  ZINC001591898574    0.4200
     33 H33        -2.6413    5.0062   55.0953 H       1  ZINC001591898574    0.0700
     34 H34        -3.3260    3.4568   54.5487 H       1  ZINC001591898574    0.0700
     35 H35        -1.0499    2.4560   54.5654 H       1  ZINC001591898574    0.0800
     36 H36        -0.3817    4.0025   55.1399 H       1  ZINC001591898574    0.0800
     37 H37        -1.6462    3.8631   57.2026 H       1  ZINC001591898574    0.0700
     38 H38        -2.5590    2.4553   56.6083 H       1  ZINC001591898574    0.0700
     39 H39        -0.0183    1.5479   56.4950 H       1  ZINC001591898574    0.4000
     40 H40         0.2970    0.0703   59.1301 H       1  ZINC001591898574    0.1200
     41 H41         1.5349    1.0016   58.2535 H       1  ZINC001591898574    0.1300
     42 H42         1.5606    3.6590   60.3034 H       1  ZINC001591898574    0.0600
     43 H43         2.7953    2.6658   61.1142 H       1  ZINC001591898574    0.0700
     44 H44         2.7308    2.7294   59.3366 H       1  ZINC001591898574    0.0700
     45 H45         2.4060   -0.8411   61.4134 H       1  ZINC001591898574    0.1300
     46 H46         1.0563   -1.3657   62.4486 H       1  ZINC001591898574    0.1200
     47 H47         0.8500   -1.3011   60.6818 H       1  ZINC001591898574    0.1300
@<TRIPOS>BOND
     1     1     2    1
     2     1    27    1
     3     1    28    1
     4     1    29    1
     5     2    26   ar
     6     2     3   ar
     7     3     4   ar
     8     3    30    1
     9     4     5    1
    10     4    10   ar
    11     5     9    1
    12     5     6    2
    13     6     7    1
    14     7     8    1
    15     7    31    1
    16     8     9    2
    17    10    11   ar
    18    11    12    1
    19    11    26   ar
    20    12    13    1
    21    12    32    1
    22    13    14    1
    23    13    33    1
    24    13    34    1
    25    14    15    1
    26    14    35    1
    27    14    36    1
    28    15    16    1
    29    15    37    1
    30    15    38    1
    31    16    17   am
    32    16    39    1
    33    17    18    2
    34    17    19    1
    35    19    20    1
    36    19    40    1
    37    19    41    1
    38    20    21    1
    39    20    22   am
    40    21    42    1
    41    21    43    1
    42    21    44    1
    43    22    23    1
    44    22    24    2
    45    22    25    2
    46    23    45    1
    47    23    46    1
    48    23    47    1
@<TRIPOS>SUBSTRUCTURE
     1 ZINC001591898574        1 TEMP              0 ****  ****    0 ROOT


##########                                Name:    ZINC000770814339
##########                DOCK_Rotatable_Bonds:                  13
##########                         Heavy_Atoms:                  28
##########                    Molecular_Weight:             409.423
##########                DOCK_Rotatable_Bonds:                  13
##########                       Formal_Charge:          -0.0100008
##########                     HBond_Acceptors:                  12
##########                        HBond_Donors:                   4
##########                         Heavy_Atoms:                  28
##########                          Grid_Score:          -39.177723
##########                     Grid_vdw_energy:          -35.947418
##########                      Grid_es_energy:           -3.230305
##########           Internal_energy_repulsive:            7.851396

@<TRIPOS>MOLECULE
ZINC000770814339
 47 48 1 0 0
SMALL
USER_CHARGES


@<TRIPOS>ATOM
      1 C1         -7.4973    4.2094   49.3601 C.3     1  ZINC000770814339   -0.1500
      2 C2         -6.7024    3.3378   50.3345 C.3     1  ZINC000770814339    0.0600
      3 O3         -6.2340    2.1474   49.6475 O.3     1  ZINC000770814339   -0.3500
      4 C4         -5.6465    1.2022   50.3978 C.2     1  ZINC000770814339    0.4700
      5 O5         -5.5195    0.0808   49.9664 O.2     1  ZINC000770814339   -0.4800
      6 C6         -5.1455    1.5396   51.7785 C.3     1  ZINC000770814339    0.0700
      7 O7         -4.0817    2.4887   51.6804 O.3     1  ZINC000770814339   -0.1800
      8 N8         -2.9565    2.0202   50.9596 N.2     1  ZINC000770814339   -0.2800
      9 C9         -1.7739    2.5070   51.2096 C.2     1  ZINC000770814339    0.1800
     10 C10        -1.6063    3.5495   52.2497 C.2     1  ZINC000770814339    0.5900
     11 O11        -1.9353    4.6961   52.0190 O.2     1  ZINC000770814339   -0.5100
     12 N12        -1.0887    3.2255   53.4511 N.am    1  ZINC000770814339   -0.7000
     13 C13        -0.9246    4.2556   54.4798 C.3     1  ZINC000770814339    0.1500
     14 C14        -0.3935    3.6255   55.7416 C.ar    1  ZINC000770814339   -0.0600
     15 C15         0.9186    3.8381   56.1211 C.ar    1  ZINC000770814339   -0.1200
     16 C16         1.4056    3.2601   57.2785 C.ar    1  ZINC000770814339   -0.0200
     17 C17         0.5804    2.4699   58.0567 C.ar    1  ZINC000770814339   -0.6700
     18 S18         1.2014    1.7328   59.5317 S.o2    1  ZINC000770814339    2.7000
     19 N19         0.3951    0.3016   59.7415 N.am    1  ZINC000770814339   -1.2500
     20 O20         2.5570    1.3952   59.2716 O.2     1  ZINC000770814339   -0.9600
     21 O21         0.8026    2.5786   60.6016 O.2     1  ZINC000770814339   -0.9600
     22 C22        -0.7321    2.2585   57.6780 C.ar    1  ZINC000770814339   -0.0200
     23 C23        -1.2202    2.8396   56.5225 C.ar    1  ZINC000770814339   -0.1200
     24 C24        -0.6008    2.0201   50.4567 C.2     1  ZINC000770814339    0.0600
     25 C25        -0.6154    1.1318   49.4028 C.2     1  ZINC000770814339   -0.2000
     26 C26         0.7023    0.9473   48.9866 C.2     1  ZINC000770814339    0.0400
     27 N27         1.4861    1.6781   49.7384 N.2     1  ZINC000770814339   -0.2600
     28 N28         0.7010    2.3693   50.6694 N.pl3   1  ZINC000770814339   -0.4400
     29 H29        -7.8490    5.1030   49.8759 H       1  ZINC000770814339    0.0800
     30 H30        -6.8575    4.4990   48.5266 H       1  ZINC000770814339    0.0700
     31 H31        -8.3519    3.6471   48.9838 H       1  ZINC000770814339    0.0700
     32 H32        -5.8478    3.9001   50.7108 H       1  ZINC000770814339    0.0700
     33 H33        -7.3423    3.0482   51.1680 H       1  ZINC000770814339    0.0700
     34 H34        -5.9589    1.9648   52.3663 H       1  ZINC000770814339    0.1100
     35 H35        -4.7810    0.6343   52.2640 H       1  ZINC000770814339    0.1100
     36 H36        -0.8249    2.3103   53.6348 H       1  ZINC000770814339    0.4100
     37 H37        -0.2227    5.0117   54.1281 H       1  ZINC000770814339    0.0900
     38 H38        -1.8885    4.7217   54.6843 H       1  ZINC000770814339    0.0900
     39 H39         1.5633    4.4554   55.5131 H       1  ZINC000770814339    0.1400
     40 H40         2.4310    3.4256   57.5745 H       1  ZINC000770814339    0.1500
     41 H41        -0.5700    0.2984   59.8385 H       1  ZINC000770814339    0.4200
     42 H42         0.8880   -0.5334   59.7674 H       1  ZINC000770814339    0.4200
     43 H43        -1.3770    1.6415   58.2861 H       1  ZINC000770814339    0.1500
     44 H44        -2.2457    2.6744   56.2266 H       1  ZINC000770814339    0.1400
     45 H45        -1.4899    0.6630   48.9765 H       1  ZINC000770814339    0.1700
     46 H46         1.0232    0.3072   48.1782 H       1  ZINC000770814339    0.1900
     47 H47         1.0250    2.9821   51.3478 H       1  ZINC000770814339    0.4500
@<TRIPOS>BOND
     1     1     2    1
     2     1    29    1
     3     1    30    1
     4     1    31    1
     5     2     3    1
     6     2    32    1
     7     2    33    1
     8     3     4    1
     9     4     5    2
    10     4     6    1
    11     6     7    1
    12     6    34    1
    13     6    35    1
    14     7     8    1
    15     8     9    2
    16     9    10    1
    17     9    24    1
    18    10    11    2
    19    10    12   am
    20    12    13    1
    21    12    36    1
    22    13    14    1
    23    13    37    1
    24    13    38    1
    25    14    23   ar
    26    14    15   ar
    27    15    16   ar
    28    15    39    1
    29    16    17   ar
    30    16    40    1
    31    17    18    1
    32    17    22   ar
    33    18    19   am
    34    18    20    2
    35    18    21    2
    36    19    41    1
    37    19    42    1
    38    22    23   ar
    39    22    43    1
    40    23    44    1
    41    24    28    1
    42    24    25    2
    43    25    26    1
    44    25    45    1
    45    26    27    2
    46    26    46    1
    47    27    28    1
    48    28    47    1
@<TRIPOS>SUBSTRUCTURE
     1 ZINC000770814339        1 TEMP              0 ****  ****    0 ROOT


##########                                Name:    ZINC000506566356
##########                DOCK_Rotatable_Bonds:                  10
##########                         Heavy_Atoms:                  28
##########                    Molecular_Weight:               415.9
##########                DOCK_Rotatable_Bonds:                  10
##########                       Formal_Charge:           0.0199998
##########                     HBond_Acceptors:                   8
##########                        HBond_Donors:                   2
##########                         Heavy_Atoms:                  28
##########                          Grid_Score:          -38.243507
##########                     Grid_vdw_energy:          -35.527122
##########                      Grid_es_energy:           -2.716383
##########           Internal_energy_repulsive:           12.197499

@<TRIPOS>MOLECULE
ZINC000506566356
 46 48 1 0 0
SMALL
USER_CHARGES


@<TRIPOS>ATOM
      1 O1         -4.0292    0.1478   49.9260 O.2     1  ZINC000506566356   -0.5100
      2 C2         -3.6142    1.1398   50.4888 C.2     1  ZINC000506566356    0.5100
      3 N3         -4.3551    1.7305   51.4472 N.am    1  ZINC000506566356   -0.7000
      4 C4         -5.6640    1.1787   51.8054 C.3     1  ZINC000506566356    0.1200
      5 C5         -6.7194    1.6898   50.8225 C.3     1  ZINC000506566356   -0.0900
      6 C6         -6.6898    3.1962   50.7920 C.ar    1  ZINC000506566356   -0.0700
      7 C7         -6.3608    3.9040   51.9328 C.ar    1  ZINC000506566356   -0.1100
      8 C8         -6.3329    5.2860   51.9055 C.ar    1  ZINC000506566356   -0.1000
      9 C9         -6.6345    5.9606   50.7377 C.ar    1  ZINC000506566356   -0.1100
     10 C10        -6.9640    5.2526   49.5954 C.ar    1  ZINC000506566356   -0.0300
     11 Cl11       -7.3424    6.0992   48.1279 Cl      1  ZINC000506566356   -0.0700
     12 C12        -6.9861    3.8697   49.6218 C.ar    1  ZINC000506566356   -0.1000
     13 C13        -2.2799    1.7023   50.1235 C.2     1  ZINC000506566356    0.5100
     14 O14        -2.0938    2.9009   50.1680 O.2     1  ZINC000506566356   -0.5000
     15 N15        -1.2824    0.8790   49.7446 N.am    1  ZINC000506566356   -0.6300
     16 C16        -0.0326    1.4058   49.4025 C.ar    1  ZINC000506566356    0.1100
     17 C17         0.7563    2.0105   50.3706 C.ar    1  ZINC000506566356   -0.0800
     18 C18         1.9908    2.5303   50.0299 C.ar    1  ZINC000506566356   -0.1400
     19 C19         2.4427    2.4497   48.7258 C.ar    1  ZINC000506566356   -0.0900
     20 C20         1.6622    1.8491   47.7551 C.ar    1  ZINC000506566356   -0.1900
     21 C21         0.4264    1.3199   48.0889 C.ar    1  ZINC000506566356    0.1200
     22 O22        -0.3421    0.7292   47.1356 O.3     1  ZINC000506566356   -0.3100
     23 C23        -0.6657    1.5131   45.9855 C.3     1  ZINC000506566356    0.1400
     24 C24        -0.4808    0.6813   44.7424 C.2     1  ZINC000506566356    0.0500
     25 C25        -1.4355   -0.1197   44.2601 C.2     1  ZINC000506566356   -0.2300
     26 S26        -0.8081   -0.8986   42.8094 S.3     1  ZINC000506566356    0.1400
     27 C27         0.6756   -0.0695   42.9958 C.2     1  ZINC000506566356    0.0200
     28 N28         0.6335    0.6886   44.0390 N.2     1  ZINC000506566356   -0.4700
     29 H29        -4.0218    2.5211   51.8996 H       1  ZINC000506566356    0.4200
     30 H30        -5.6239    0.0903   51.7620 H       1  ZINC000506566356    0.0800
     31 H31        -5.9264    1.4925   52.8158 H       1  ZINC000506566356    0.0800
     32 H32        -6.5061    1.3020   49.8264 H       1  ZINC000506566356    0.0900
     33 H33        -7.7057    1.3520   51.1404 H       1  ZINC000506566356    0.0900
     34 H34        -6.1257    3.3772   52.8459 H       1  ZINC000506566356    0.1300
     35 H35        -6.0758    5.8385   52.7971 H       1  ZINC000506566356    0.1300
     36 H36        -6.6135    7.0402   50.7167 H       1  ZINC000506566356    0.1300
     37 H37        -7.2431    3.3165   48.7305 H       1  ZINC000506566356    0.1300
     38 H38        -1.4311   -0.0790   49.7092 H       1  ZINC000506566356    0.4300
     39 H39         0.4057    2.0751   51.3901 H       1  ZINC000506566356    0.1500
     40 H40         2.6038    3.0010   50.7842 H       1  ZINC000506566356    0.1300
     41 H41         3.4081    2.8573   48.4644 H       1  ZINC000506566356    0.1300
     42 H42         2.0182    1.7886   46.7371 H       1  ZINC000506566356    0.1400
     43 H43        -1.7024    1.8433   46.0508 H       1  ZINC000506566356    0.0900
     44 H44        -0.0095    2.3823   45.9418 H       1  ZINC000506566356    0.0900
     45 H45        -2.4181   -0.2642   44.6843 H       1  ZINC000506566356    0.1800
     46 H46         1.5236   -0.1634   42.3336 H       1  ZINC000506566356    0.2100
@<TRIPOS>BOND
     1     1     2    2
     2     2     3   am
     3     2    13    1
     4     3     4    1
     5     3    29    1
     6     4     5    1
     7     4    30    1
     8     4    31    1
     9     5     6    1
    10     5    32    1
    11     5    33    1
    12     6    12   ar
    13     6     7   ar
    14     7     8   ar
    15     7    34    1
    16     8     9   ar
    17     8    35    1
    18     9    10   ar
    19     9    36    1
    20    10    11    1
    21    10    12   ar
    22    12    37    1
    23    13    14    2
    24    13    15   am
    25    15    16    1
    26    15    38    1
    27    16    21   ar
    28    16    17   ar
    29    17    18   ar
    30    17    39    1
    31    18    19   ar
    32    18    40    1
    33    19    20   ar
    34    19    41    1
    35    20    21   ar
    36    20    42    1
    37    21    22    1
    38    22    23    1
    39    23    24    1
    40    23    43    1
    41    23    44    1
    42    24    28    1
    43    24    25    2
    44    25    26    1
    45    25    45    1
    46    26    27    1
    47    27    28    2
    48    27    46    1
@<TRIPOS>SUBSTRUCTURE
     1 ZINC000506566356        1 TEMP              0 ****  ****    0 ROOT


##########                                Name:    ZINC001109848453
##########                DOCK_Rotatable_Bonds:                   8
##########                         Heavy_Atoms:                  24
##########                    Molecular_Weight:             328.337
##########                DOCK_Rotatable_Bonds:                   8
##########                       Formal_Charge:          0.00999966
##########                     HBond_Acceptors:                  11
##########                        HBond_Donors:                   2
##########                         Heavy_Atoms:                  24
##########                          Grid_Score:          -38.160992
##########                     Grid_vdw_energy:          -36.081039
##########                      Grid_es_energy:           -2.079951
##########           Internal_energy_repulsive:            6.516559

@<TRIPOS>MOLECULE
ZINC001109848453
 40 43 1 0 0
SMALL
USER_CHARGES


@<TRIPOS>ATOM
      1 O1          0.5409    0.6883   46.8212 O.2     1  ZINC001109848453   -0.5000
      2 C2         -0.2893    1.5723   46.8090 C.2     1  ZINC001109848453    0.5000
      3 C3         -0.8612    2.0509   45.4994 C.3     1  ZINC001109848453    0.1100
      4 N4         -0.7556    0.9836   44.5014 N.pl3   1  ZINC001109848453   -0.3700
      5 C5         -1.6475    0.0045   44.2715 C.2     1  ZINC001109848453    0.2600
      6 N6         -1.1875   -0.7445   43.3023 N.2     1  ZINC001109848453   -0.5400
      7 C7         -0.0099   -0.2769   42.8899 C.2     1  ZINC001109848453    0.2000
      8 N8          0.2946    0.7837   43.5907 N.2     1  ZINC001109848453   -0.2900
      9 N9         -0.7047    2.1229   47.9670 N.am    1  ZINC001109848453   -0.7300
     10 C10        -0.1489    1.6576   49.2400 C.3     1  ZINC001109848453    0.1700
     11 H11        -0.1486    0.5678   49.2599 H       1  ZINC001109848453    0.1000
     12 C12        -1.0023    2.1885   50.3936 C.3     1  ZINC001109848453    0.1200
     13 N13        -2.1437    1.2953   50.6077 N.pl3   1  ZINC001109848453   -0.6800
     14 C14        -3.3513    1.8088   51.0511 C.2     1  ZINC001109848453    0.4900
     15 N15        -3.3958    2.9845   51.6473 N.2     1  ZINC001109848453   -0.5300
     16 C16        -4.5518    3.4940   52.0801 C.2     1  ZINC001109848453    0.1400
     17 C17        -5.7155    2.8294   51.9259 C.2     1  ZINC001109848453   -0.0500
     18 N18        -5.7278    1.6064   51.3147 N.pl3   1  ZINC001109848453   -0.1800
     19 N19        -6.6491    0.7558   51.0303 N.2     1  ZINC001109848453   -0.1000
     20 N20        -6.1219   -0.2603   50.4400 N.2     1  ZINC001109848453   -0.0400
     21 N21        -4.8473   -0.0932   50.3275 N.2     1  ZINC001109848453   -0.2600
     22 C22        -4.5491    1.0798   50.8631 C.2     1  ZINC001109848453    0.1000
     23 C23         1.2850    2.1708   49.3884 C.3     1  ZINC001109848453   -0.1800
     24 C24         2.1167    1.6180   50.5476 C.3     1  ZINC001109848453   -0.1700
     25 C25         2.4207    1.1834   49.1125 C.3     1  ZINC001109848453   -0.1700
     26 H26        -1.9091    2.3179   45.6364 H       1  ZINC001109848453    0.1300
     27 H27        -0.3054    2.9241   45.1577 H       1  ZINC001109848453    0.1200
     28 H28        -2.5807   -0.1394   44.7957 H       1  ZINC001109848453    0.2200
     29 H29         0.5932   -0.7027   42.1017 H       1  ZINC001109848453    0.2200
     30 H30        -1.3716    2.8272   47.9573 H       1  ZINC001109848453    0.4000
     31 H31        -0.4000    2.2324   51.3010 H       1  ZINC001109848453    0.1000
     32 H32        -1.3635    3.1873   50.1486 H       1  ZINC001109848453    0.0900
     33 H33        -2.0537    0.3443   50.4392 H       1  ZINC001109848453    0.4200
     34 H34        -4.5551    4.4593   52.5646 H       1  ZINC001109848453    0.2000
     35 H35        -6.6371    3.2628   52.2853 H       1  ZINC001109848453    0.1900
     36 H36         1.4433    3.2116   49.1063 H       1  ZINC001109848453    0.1100
     37 H37         2.8223    2.2954   51.0285 H       1  ZINC001109848453    0.1000
     38 H38         1.6424    0.8890   51.2045 H       1  ZINC001109848453    0.1000
     39 H39         2.1464    0.1683   48.8252 H       1  ZINC001109848453    0.1200
     40 H40         3.3264    1.5747   48.6493 H       1  ZINC001109848453    0.0900
@<TRIPOS>BOND
     1     1     2    2
     2     2     3    1
     3     2     9   am
     4     3     4    1
     5     3    26    1
     6     3    27    1
     7     4     8    1
     8     4     5    1
     9     5     6    2
    10     5    28    1
    11     6     7    1
    12     7     8    2
    13     7    29    1
    14     9    10    1
    15     9    30    1
    16    10    11    1
    17    10    12    1
    18    10    23    1
    19    12    13    1
    20    12    31    1
    21    12    32    1
    22    13    14    1
    23    13    33    1
    24    14    22    1
    25    14    15    2
    26    15    16    1
    27    16    17    2
    28    16    34    1
    29    17    18    1
    30    17    35    1
    31    18    22    1
    32    18    19    1
    33    19    20    2
    34    20    21    1
    35    21    22    2
    36    23    25    1
    37    23    24    1
    38    23    36    1
    39    24    25    1
    40    24    37    1
    41    24    38    1
    42    25    39    1
    43    25    40    1
@<TRIPOS>SUBSTRUCTURE
     1 ZINC001109848453        1 TEMP              0 ****  ****    0 ROOT


##########                                Name:    ZINC000546142192
##########                DOCK_Rotatable_Bonds:                  12
##########                         Heavy_Atoms:                  31
##########                    Molecular_Weight:             420.511
##########                DOCK_Rotatable_Bonds:                  12
##########                       Formal_Charge:          -0.0599997
##########                     HBond_Acceptors:                   7
##########                        HBond_Donors:                   2
##########                         Heavy_Atoms:                  31
##########                          Grid_Score:          -38.093784
##########                     Grid_vdw_energy:          -35.969746
##########                      Grid_es_energy:           -2.124039
##########           Internal_energy_repulsive:           13.575037

@<TRIPOS>MOLECULE
ZINC000546142192
 59 61 1 0 0
SMALL
USER_CHARGES


@<TRIPOS>ATOM
      1 C1          0.2312    4.8372   42.9233 C.3     1  ZINC000546142192    0.0300
      2 O2          0.7902    3.5931   43.4214 O.3     1  ZINC000546142192   -0.3600
      3 C3         -0.0255    2.8008   44.1346 C.2     1  ZINC000546142192    0.4600
      4 O4         -1.2143    3.0161   44.1509 O.2     1  ZINC000546142192   -0.5100
      5 C5          0.5415    1.6427   44.9146 C.3     1  ZINC000546142192   -0.0800
      6 H6         -0.2668    0.9753   45.2130 H       1  ZINC000546142192    0.1100
      7 C7          1.5378    0.8782   44.0406 C.3     1  ZINC000546142192   -0.1500
      8 C8          1.2554    2.1685   46.1615 C.3     1  ZINC000546142192   -0.0600
      9 C9          0.3161    2.1137   47.3388 C.ar    1  ZINC000546142192   -0.1000
     10 C10        -0.1980    3.2840   47.8662 C.ar    1  ZINC000546142192   -0.0900
     11 C11        -1.0595    3.2372   48.9448 C.ar    1  ZINC000546142192   -0.1200
     12 C12        -1.4092    2.0131   49.4994 C.ar    1  ZINC000546142192    0.1600
     13 N13        -2.2821    1.9621   50.5920 N.am    1  ZINC000546142192   -0.6900
     14 C14        -3.5386    1.5024   50.4297 C.2     1  ZINC000546142192    0.7100
     15 O15        -3.9137    1.1320   49.3341 O.2     1  ZINC000546142192   -0.5700
     16 N16        -4.3795    1.4532   51.4819 N.am    1  ZINC000546142192   -0.7400
     17 C17        -5.7457    0.9551   51.3051 C.3     1  ZINC000546142192    0.2300
     18 C18        -6.6629    2.1072   50.9847 C.2     1  ZINC000546142192    0.1800
     19 N19        -6.4464    3.0229   50.0806 N.2     1  ZINC000546142192   -0.4700
     20 C20        -7.4722    3.8870   50.0716 C.2     1  ZINC000546142192   -0.0300
     21 C21        -8.3581    3.4917   51.0058 C.2     1  ZINC000546142192   -0.0400
     22 N22        -7.8477    2.3596   51.5816 N.pl3   1  ZINC000546142192   -0.4500
     23 C23        -8.4669    1.5735   52.6516 C.3     1  ZINC000546142192    0.1100
     24 C24        -9.9602    1.8987   52.7245 C.3     1  ZINC000546142192   -0.0900
     25 C25       -10.6392    0.9337   53.6621 C.ar    1  ZINC000546142192   -0.0900
     26 C26       -10.0028    0.5335   54.8222 C.ar    1  ZINC000546142192   -0.1100
     27 C27       -10.6258   -0.3516   55.6821 C.ar    1  ZINC000546142192   -0.1200
     28 C28       -11.8852   -0.8362   55.3820 C.ar    1  ZINC000546142192   -0.1200
     29 C29       -12.5219   -0.4352   54.2224 C.ar    1  ZINC000546142192   -0.1200
     30 C30       -11.9008    0.4532   53.3646 C.ar    1  ZINC000546142192   -0.1100
     31 C31        -0.8912    0.8396   48.9674 C.ar    1  ZINC000546142192   -0.1500
     32 C32        -0.0344    0.8929   47.8855 C.ar    1  ZINC000546142192   -0.0900
     33 H33        -0.1077    5.4449   43.7623 H       1  ZINC000546142192    0.0600
     34 H34         0.9938    5.3807   42.3656 H       1  ZINC000546142192    0.1000
     35 H35        -0.6124    4.6198   42.2681 H       1  ZINC000546142192    0.0600
     36 H36         2.3462    1.5457   43.7422 H       1  ZINC000546142192    0.0600
     37 H37         1.9479    0.0406   44.6049 H       1  ZINC000546142192    0.0800
     38 H38         1.0292    0.5037   43.1524 H       1  ZINC000546142192    0.0700
     39 H39         2.1307    1.5520   46.3661 H       1  ZINC000546142192    0.0800
     40 H40         1.5680    3.1992   45.9938 H       1  ZINC000546142192    0.0800
     41 H41         0.0746    4.2357   47.4346 H       1  ZINC000546142192    0.1300
     42 H42        -1.4603    4.1515   49.3565 H       1  ZINC000546142192    0.1400
     43 H43        -1.9829    2.2577   51.4661 H       1  ZINC000546142192    0.4100
     44 H44        -4.0798    1.7475   52.3563 H       1  ZINC000546142192    0.4000
     45 H45        -5.7670    0.2354   50.4867 H       1  ZINC000546142192    0.0800
     46 H46        -6.0777    0.4709   52.2235 H       1  ZINC000546142192    0.1000
     47 H47        -7.5706    4.7488   49.4281 H       1  ZINC000546142192    0.1700
     48 H48        -9.2933    3.9729   51.2506 H       1  ZINC000546142192    0.1800
     49 H49        -8.3360    0.5114   52.4446 H       1  ZINC000546142192    0.1000
     50 H50        -7.9947    1.8191   53.6028 H       1  ZINC000546142192    0.0900
     51 H51       -10.0930    2.9164   53.0917 H       1  ZINC000546142192    0.0800
     52 H52       -10.4001    1.8105   51.7311 H       1  ZINC000546142192    0.0800
     53 H53        -9.0189    0.9120   55.0565 H       1  ZINC000546142192    0.1200
     54 H54       -10.1283   -0.6648   56.5881 H       1  ZINC000546142192    0.1200
     55 H55       -12.3715   -1.5282   56.0536 H       1  ZINC000546142192    0.1200
     56 H56       -13.5057   -0.8141   53.9879 H       1  ZINC000546142192    0.1200
     57 H57       -12.3982    0.7665   52.4586 H       1  ZINC000546142192    0.1200
     58 H58        -1.1614   -0.1139   49.3966 H       1  ZINC000546142192    0.1300
     59 H59         0.3685   -0.0194   47.4709 H       1  ZINC000546142192    0.1300
@<TRIPOS>BOND
     1     1     2    1
     2     1    33    1
     3     1    34    1
     4     1    35    1
     5     2     3    1
     6     3     4    2
     7     3     5    1
     8     5     6    1
     9     5     7    1
    10     5     8    1
    11     7    36    1
    12     7    37    1
    13     7    38    1
    14     8     9    1
    15     8    39    1
    16     8    40    1
    17     9    32   ar
    18     9    10   ar
    19    10    11   ar
    20    10    41    1
    21    11    12   ar
    22    11    42    1
    23    12    13    1
    24    12    31   ar
    25    13    14   am
    26    13    43    1
    27    14    15    2
    28    14    16   am
    29    16    17    1
    30    16    44    1
    31    17    18    1
    32    17    45    1
    33    17    46    1
    34    18    22    1
    35    18    19    2
    36    19    20    1
    37    20    21    2
    38    20    47    1
    39    21    22    1
    40    21    48    1
    41    22    23    1
    42    23    24    1
    43    23    49    1
    44    23    50    1
    45    24    25    1
    46    24    51    1
    47    24    52    1
    48    25    30   ar
    49    25    26   ar
    50    26    27   ar
    51    26    53    1
    52    27    28   ar
    53    27    54    1
    54    28    29   ar
    55    28    55    1
    56    29    30   ar
    57    29    56    1
    58    30    57    1
    59    31    32   ar
    60    31    58    1
    61    32    59    1
@<TRIPOS>SUBSTRUCTURE
     1 ZINC000546142192        1 TEMP              0 ****  ****    0 ROOT


##########                                Name:    ZINC000508765459
##########                DOCK_Rotatable_Bonds:                  10
##########                         Heavy_Atoms:                  29
##########                    Molecular_Weight:               405.5
##########                DOCK_Rotatable_Bonds:                  10
##########                       Formal_Charge:         -6.4075e-07
##########                     HBond_Acceptors:                  10
##########                        HBond_Donors:                   1
##########                         Heavy_Atoms:                  29
##########                          Grid_Score:          -37.835079
##########                     Grid_vdw_energy:          -37.141449
##########                      Grid_es_energy:           -0.693631
##########           Internal_energy_repulsive:           14.392281

@<TRIPOS>MOLECULE
ZINC000508765459
 60 62 1 0 0
SMALL
USER_CHARGES


@<TRIPOS>ATOM
      1 C1         -0.4985    1.1731   49.6160 C.3     1  ZINC000508765459    0.0300
      2 O2         -1.7634    0.9094   49.0054 O.3     1  ZINC000508765459   -0.3900
      3 C3         -2.8073    1.7890   49.4281 C.3     1  ZINC000508765459    0.0500
      4 C4         -3.2160    1.4437   50.8614 C.3     1  ZINC000508765459    0.1100
      5 N5         -4.6623    1.6206   51.0129 N.am    1  ZINC000508765459   -0.5900
      6 C6         -5.1400    2.9087   51.4968 C.3     1  ZINC000508765459    0.1000
      7 C7         -6.6003    3.1305   51.0981 C.3     1  ZINC000508765459    0.1200
      8 N8         -7.3535    1.9041   51.4107 N.am    1  ZINC000508765459   -0.6400
      9 C9         -8.3700    1.9119   52.2954 C.2     1  ZINC000508765459    0.7100
     10 O10        -8.6829    2.9461   52.8530 O.2     1  ZINC000508765459   -0.5800
     11 N11        -9.0399    0.7732   52.5622 N.am    1  ZINC000508765459   -0.7400
     12 C12       -10.1461    0.7819   53.5228 C.3     1  ZINC000508765459    0.1400
     13 C13        -9.6173    0.4233   54.9130 C.3     1  ZINC000508765459   -0.1400
     14 C14       -10.7468    0.5513   55.9369 C.3     1  ZINC000508765459    0.0600
     15 N15       -10.1804    0.5599   57.2922 N.3     1  ZINC000508765459   -0.5400
     16 C16        -9.6758   -0.7702   57.6608 C.3     1  ZINC000508765459    0.0500
     17 C17        -9.0241   -0.7005   59.0438 C.3     1  ZINC000508765459    0.0700
     18 N18       -10.0105   -0.2244   60.0238 N.3     1  ZINC000508765459   -0.4600
     19 C19        -9.4767   -0.2162   61.3008 C.ar    1  ZINC000508765459    0.4900
     20 N20        -8.2027    0.1071   61.4672 N.ar    1  ZINC000508765459   -0.5500
     21 C21        -7.6616    0.1251   62.6741 C.ar    1  ZINC000508765459    0.1700
     22 C22        -8.4446   -0.1995   63.7708 C.ar    1  ZINC000508765459   -0.2600
     23 C23        -9.7735   -0.5328   63.5610 C.ar    1  ZINC000508765459    0.1700
     24 N24       -10.2534   -0.5266   62.3283 N.ar    1  ZINC000508765459   -0.5300
     25 C25       -10.5151    1.1057   59.6553 C.3     1  ZINC000508765459    0.0700
     26 C26       -11.1667    1.0359   58.2723 C.3     1  ZINC000508765459    0.0600
     27 C27        -6.9516    0.6711   50.7177 C.3     1  ZINC000508765459    0.1000
     28 C28        -5.4497    0.5926   50.6929 C.2     1  ZINC000508765459    0.5100
     29 O29        -4.9304   -0.4563   50.3753 O.2     1  ZINC000508765459   -0.5400
     30 H30        -0.5883    1.0694   50.6973 H       1  ZINC000508765459    0.0400
     31 H31         0.2400    0.4634   49.2431 H       1  ZINC000508765459    0.0900
     32 H32        -0.1823    2.1877   49.3732 H       1  ZINC000508765459    0.0400
     33 H33        -2.4526    2.8189   49.3895 H       1  ZINC000508765459    0.0500
     34 H34        -3.6672    1.6759   48.7678 H       1  ZINC000508765459    0.0600
     35 H35        -2.9524    0.4078   51.0750 H       1  ZINC000508765459    0.1100
     36 H36        -2.6947    2.1019   51.5565 H       1  ZINC000508765459    0.0900
     37 H37        -5.0563    2.9373   52.5832 H       1  ZINC000508765459    0.0700
     38 H38        -4.5270    3.7022   51.0695 H       1  ZINC000508765459    0.1000
     39 H39        -7.0119    3.9684   51.6609 H       1  ZINC000508765459    0.1200
     40 H40        -6.6625    3.3381   50.0300 H       1  ZINC000508765459    0.0800
     41 H41        -8.7895   -0.0522   52.1184 H       1  ZINC000508765459    0.4000
     42 H42       -10.5958    1.7745   53.5499 H       1  ZINC000508765459    0.0700
     43 H43       -10.8961    0.0513   53.2198 H       1  ZINC000508765459    0.0700
     44 H44        -9.2463   -0.6016   54.9073 H       1  ZINC000508765459    0.0700
     45 H45        -8.8068    1.1017   55.1795 H       1  ZINC000508765459    0.0800
     46 H46       -11.2903    1.4801   55.7643 H       1  ZINC000508765459    0.0800
     47 H47       -11.4284   -0.2932   55.8334 H       1  ZINC000508765459    0.0400
     48 H48       -10.5032   -1.4794   57.6840 H       1  ZINC000508765459    0.0500
     49 H49        -8.9381   -1.0953   56.9272 H       1  ZINC000508765459    0.0900
     50 H50        -8.6749   -1.6920   59.3317 H       1  ZINC000508765459    0.0900
     51 H51        -8.1798   -0.0117   59.0138 H       1  ZINC000508765459    0.0600
     52 H52        -6.6225    0.3892   62.8034 H       1  ZINC000508765459    0.1700
     53 H53        -8.0282   -0.1931   64.7674 H       1  ZINC000508765459    0.1500
     54 H54       -10.4104   -0.7910   64.3941 H       1  ZINC000508765459    0.1700
     55 H55       -11.2528    1.4309   60.3889 H       1  ZINC000508765459    0.1000
     56 H56        -9.6877    1.8149   59.6321 H       1  ZINC000508765459    0.0500
     57 H57       -11.5159    2.0276   57.9844 H       1  ZINC000508765459    0.0900
     58 H58       -12.0111    0.3472   58.3024 H       1  ZINC000508765459    0.0500
     59 H59        -7.3563   -0.1927   51.2453 H       1  ZINC000508765459    0.1100
     60 H60        -7.3298    0.6868   49.6956 H       1  ZINC000508765459    0.1100
@<TRIPOS>BOND
     1     1     2    1
     2     1    30    1
     3     1    31    1
     4     1    32    1
     5     2     3    1
     6     3     4    1
     7     3    33    1
     8     3    34    1
     9     4     5    1
    10     4    35    1
    11     4    36    1
    12     5    28   am
    13     5     6    1
    14     6     7    1
    15     6    37    1
    16     6    38    1
    17     7     8    1
    18     7    39    1
    19     7    40    1
    20     8     9   am
    21     8    27    1
    22     9    10    2
    23     9    11   am
    24    11    12    1
    25    11    41    1
    26    12    13    1
    27    12    42    1
    28    12    43    1
    29    13    14    1
    30    13    44    1
    31    13    45    1
    32    14    15    1
    33    14    46    1
    34    14    47    1
    35    15    26    1
    36    15    16    1
    37    16    17    1
    38    16    48    1
    39    16    49    1
    40    17    18    1
    41    17    50    1
    42    17    51    1
    43    18    19    1
    44    18    25    1
    45    19    24   ar
    46    19    20   ar
    47    20    21   ar
    48    21    22   ar
    49    21    52    1
    50    22    23   ar
    51    22    53    1
    52    23    24   ar
    53    23    54    1
    54    25    26    1
    55    25    55    1
    56    25    56    1
    57    26    57    1
    58    26    58    1
    59    27    28    1
    60    27    59    1
    61    27    60    1
    62    28    29    2
@<TRIPOS>SUBSTRUCTURE
     1 ZINC000508765459        1 TEMP              0 ****  ****    0 ROOT


##########                                Name:    ZINC000442010511
##########                DOCK_Rotatable_Bonds:                  11
##########                         Heavy_Atoms:                  31
##########                    Molecular_Weight:             422.481
##########                DOCK_Rotatable_Bonds:                  11
##########                       Formal_Charge:          -0.0200005
##########                     HBond_Acceptors:                   7
##########                        HBond_Donors:                   2
##########                         Heavy_Atoms:                  31
##########                          Grid_Score:          -37.055492
##########                     Grid_vdw_energy:          -36.517834
##########                      Grid_es_energy:           -0.537658
##########           Internal_energy_repulsive:            8.569730

@<TRIPOS>MOLECULE
ZINC000442010511
 57 59 1 0 0
SMALL
USER_CHARGES


@<TRIPOS>ATOM
      1 C1        -11.1641    0.7531   53.3000 C.3     1  ZINC000442010511   -0.1500
      2 C2         -9.9246    0.8642   54.1899 C.3     1  ZINC000442010511   -0.0500
      3 C3         -8.8383    1.6004   53.4487 C.2     1  ZINC000442010511    0.0000
      4 C4         -7.9056    2.3941   54.0047 C.2     1  ZINC000442010511   -0.2100
      5 C5         -7.0957    2.8750   52.9503 C.2     1  ZINC000442010511   -0.1900
      6 C6         -7.5819    2.3463   51.8131 C.2     1  ZINC000442010511   -0.0300
      7 C7         -7.0347    2.5792   50.4284 C.3     1  ZINC000442010511    0.2400
      8 H8         -7.4337    1.8263   49.7487 H       1  ZINC000442010511    0.1400
      9 C9         -7.4455    3.9716   49.9452 C.3     1  ZINC000442010511    0.0500
     10 O10        -6.9013    4.2041   48.6445 O.3     1  ZINC000442010511   -0.3800
     11 C11        -7.2264    5.4841   48.0987 C.3     1  ZINC000442010511    0.0300
     12 N12        -5.5731    2.4843   50.4586 N.am    1  ZINC000442010511   -0.6900
     13 C13        -4.9673    1.3169   50.1643 C.2     1  ZINC000442010511    0.5200
     14 O14        -5.6327    0.3439   49.8757 O.2     1  ZINC000442010511   -0.5100
     15 C15        -3.4774    1.2206   50.1933 C.2     1  ZINC000442010511    0.5100
     16 O16        -2.9348    0.1501   50.0112 O.2     1  ZINC000442010511   -0.5000
     17 N17        -2.7352    2.3221   50.4215 N.am    1  ZINC000442010511   -0.6300
     18 C18        -1.3398    2.2319   50.4486 C.ar    1  ZINC000442010511    0.1200
     19 C19        -0.6576    2.3582   51.6503 C.ar    1  ZINC000442010511   -0.1000
     20 C20         0.7213    2.2688   51.6744 C.ar    1  ZINC000442010511   -0.1300
     21 C21         1.4244    2.0535   50.5034 C.ar    1  ZINC000442010511   -0.0900
     22 C22         0.7523    1.9270   49.3018 C.ar    1  ZINC000442010511   -0.1700
     23 C23        -0.6304    2.0091   49.2691 C.ar    1  ZINC000442010511    0.1000
     24 O24        -1.2927    1.8850   48.0886 O.3     1  ZINC000442010511   -0.2600
     25 C25        -0.9431    2.7142   47.0706 C.ar    1  ZINC000442010511    0.0800
     26 C26        -0.6090    4.0351   47.3336 C.ar    1  ZINC000442010511   -0.1300
     27 C27        -0.2535    4.8760   46.2970 C.ar    1  ZINC000442010511   -0.1100
     28 C28        -0.2309    4.4026   44.9980 C.ar    1  ZINC000442010511   -0.0800
     29 C29         0.1569    5.3224   43.8689 C.3     1  ZINC000442010511   -0.1200
     30 C30        -0.5629    3.0868   44.7331 C.ar    1  ZINC000442010511   -0.1100
     31 C31        -0.9141    2.2403   45.7668 C.ar    1  ZINC000442010511   -0.1100
     32 O32        -8.6340    1.5705   52.1217 O.3     1  ZINC000442010511   -0.1600
     33 H33       -11.5147    1.7516   53.0390 H       1  ZINC000442010511    0.0600
     34 H34       -10.9109    0.2079   52.3908 H       1  ZINC000442010511    0.0600
     35 H35       -11.9497    0.2207   53.8360 H       1  ZINC000442010511    0.0700
     36 H36       -10.1777    1.4094   55.0991 H       1  ZINC000442010511    0.0900
     37 H37        -9.5739   -0.1343   54.4509 H       1  ZINC000442010511    0.0800
     38 H38        -7.7965    2.6211   55.0550 H       1  ZINC000442010511    0.1500
     39 H39        -6.2492    3.5397   53.0406 H       1  ZINC000442010511    0.1500
     40 H40        -8.5327    4.0347   49.9008 H       1  ZINC000442010511    0.0700
     41 H41        -7.0657    4.7231   50.6375 H       1  ZINC000442010511    0.0700
     42 H42        -6.7765    5.5828   47.1108 H       1  ZINC000442010511    0.0900
     43 H43        -8.3090    5.5796   48.0163 H       1  ZINC000442010511    0.0400
     44 H44        -6.8413    6.2664   48.7529 H       1  ZINC000442010511    0.0400
     45 H45        -5.0413    3.2617   50.6905 H       1  ZINC000442010511    0.4200
     46 H46        -3.1688    3.1775   50.5670 H       1  ZINC000442010511    0.4300
     47 H47        -1.2040    2.5267   52.5665 H       1  ZINC000442010511    0.1600
     48 H48         1.2512    2.3676   52.6103 H       1  ZINC000442010511    0.1300
     49 H49         2.5019    1.9844   50.5274 H       1  ZINC000442010511    0.1300
     50 H50         1.3048    1.7597   48.3891 H       1  ZINC000442010511    0.1300
     51 H51        -0.6272    4.4055   48.3480 H       1  ZINC000442010511    0.1300
     52 H52         0.0067    5.9041   46.5011 H       1  ZINC000442010511    0.1300
     53 H53         1.2345    5.2720   43.7130 H       1  ZINC000442010511    0.0700
     54 H54        -0.3568    5.0158   42.9577 H       1  ZINC000442010511    0.0700
     55 H55        -0.1266    6.3447   44.1194 H       1  ZINC000442010511    0.0700
     56 H56        -0.5445    2.7196   43.7176 H       1  ZINC000442010511    0.1300
     57 H57        -1.1731    1.2125   45.5594 H       1  ZINC000442010511    0.1300
@<TRIPOS>BOND
     1     1     2    1
     2     1    33    1
     3     1    34    1
     4     1    35    1
     5     2     3    1
     6     2    36    1
     7     2    37    1
     8     3    32    1
     9     3     4    2
    10     4     5    1
    11     4    38    1
    12     5     6    2
    13     5    39    1
    14     6     7    1
    15     6    32    1
    16     7     8    1
    17     7     9    1
    18     7    12    1
    19     9    10    1
    20     9    40    1
    21     9    41    1
    22    10    11    1
    23    11    42    1
    24    11    43    1
    25    11    44    1
    26    12    13   am
    27    12    45    1
    28    13    14    2
    29    13    15    1
    30    15    16    2
    31    15    17   am
    32    17    18    1
    33    17    46    1
    34    18    23   ar
    35    18    19   ar
    36    19    20   ar
    37    19    47    1
    38    20    21   ar
    39    20    48    1
    40    21    22   ar
    41    21    49    1
    42    22    23   ar
    43    22    50    1
    44    23    24    1
    45    24    25    1
    46    25    31   ar
    47    25    26   ar
    48    26    27   ar
    49    26    51    1
    50    27    28   ar
    51    27    52    1
    52    28    29    1
    53    28    30   ar
    54    29    53    1
    55    29    54    1
    56    29    55    1
    57    30    31   ar
    58    30    56    1
    59    31    57    1
@<TRIPOS>SUBSTRUCTURE
     1 ZINC000442010511        1 TEMP              0 ****  ****    0 ROOT


##########                                Name:     oleObject42.pdb
##########                DOCK_Rotatable_Bonds:                   9
##########                         Heavy_Atoms:                  36
##########                    Molecular_Weight:             527.493
##########                DOCK_Rotatable_Bonds:                   9
##########                       Formal_Charge:         9.99384e-05
##########                     HBond_Acceptors:                   8
##########                        HBond_Donors:                   0
##########                         Heavy_Atoms:                  36
##########                          Grid_Score:          -36.911621
##########                     Grid_vdw_energy:          -36.134502
##########                      Grid_es_energy:           -0.777119
##########           Internal_energy_repulsive:           26.902826

@<TRIPOS>MOLECULE
oleObject42.pdb
 68 71 1 0 0
SMALL
NO_CHARGES


@<TRIPOS>ATOM
      1 C         -11.2657    0.9896   64.3396 C.ar    1  UNL        -0.0435
      2 C          -9.8837    1.0794   64.1190 C.ar    1  UNL        -0.0559
      3 C          -9.3801    0.8649   62.8222 C.ar    1  UNL        -0.0272
      4 C         -10.2975    0.5638   61.7839 C.ar    1  UNL         0.0699
      5 N         -11.6292    0.4802   62.0109 N.ar    1  UNL        -0.2586
      6 C         -12.1012    0.6875   63.2543 C.ar    1  UNL         0.0272
      7 C          -9.8300    0.3176   60.3393 C.3     1  UNL         0.1101
      8 C         -10.4641   -0.9326   59.6991 C.ar    1  UNL         0.0699
      9 C          -9.6715   -2.0355   59.2921 C.ar    1  UNL        -0.0272
     10 C         -10.3133   -3.1417   58.7041 C.ar    1  UNL        -0.0559
     11 C         -11.7057   -3.1166   58.5398 C.ar    1  UNL        -0.0435
     12 C         -12.4123   -1.9833   58.9678 C.ar    1  UNL         0.0272
     13 N         -11.8074   -0.9203   59.5298 N.ar    1  UNL        -0.2586
     14 C          -8.1574   -2.0590   59.4715 C.3     1  UNL        -0.0379
     15 N          -9.8995    1.5420   59.4943 N.am    1  UNL        -0.2902
     16 C          -8.8725    1.9286   58.6322 C.2     1  UNL         0.2180
     17 O          -7.7667    1.4216   58.7264 O.2     1  UNL        -0.2772
     18 C          -9.0872    3.2269   57.8162 C.3     1  UNL         0.0385
     19 C         -10.0280    2.9858   56.6111 C.3     1  UNL        -0.0289
     20 C          -9.3297    2.2176   55.4686 C.3     1  UNL        -0.0010
     21 N          -8.0894    2.8983   55.0379 N.4     1  UNL        -0.3010
     22 C          -7.1196    3.1280   56.1317 C.3     1  UNL        -0.0010
     23 C          -7.7573    3.8641   57.3345 C.3     1  UNL        -0.0289
     24 C          -7.4885    2.3334   53.8092 C.3     1  UNL         0.0222
     25 C          -8.1025    2.8790   52.5006 C.3     1  UNL         0.0661
     26 O          -7.2944    2.4143   51.4080 O.3     1  UNL        -0.3432
     27 C          -5.9425    2.6544   51.4315 C.ar    1  UNL         0.0937
     28 C          -5.4818    3.9278   51.8060 C.ar    1  UNL        -0.0288
     29 C          -4.1034    4.1967   51.8347 C.ar    1  UNL        -0.0408
     30 C          -3.1864    3.1914   51.4852 C.ar    1  UNL         0.0422
     31 C          -3.6441    1.9186   51.1053 C.ar    1  UNL        -0.0221
     32 C          -5.0225    1.6475   51.0762 C.ar    1  UNL         0.0723
     33 CL         -5.5683    0.0522   50.5934 Cl      1  UNL        -0.0814
     34 CL         -1.4684    3.5264   51.5206 Cl      1  UNL        -0.0843
     35 C         -11.0503    2.4376   59.7272 C.3     1  UNL         0.0038
     36 C          -7.8782    0.9654   62.5787 C.3     1  UNL        -0.0379
     37 H         -11.6812    1.1518   65.3298 H       1  UNL         0.0639
     38 H          -9.2160    1.3137   64.9434 H       1  UNL         0.0627
     39 H         -13.1801    0.6097   63.3824 H       1  UNL         0.0840
     40 H          -8.7656    0.0831   60.4220 H       1  UNL         0.0643
     41 H          -9.7436   -4.0081   58.3801 H       1  UNL         0.0627
     42 H         -12.2268   -3.9568   58.0905 H       1  UNL         0.0639
     43 H         -13.4943   -1.9232   58.8584 H       1  UNL         0.0840
     44 H          -7.6769   -1.2706   58.8791 H       1  UNL         0.0280
     45 H          -7.7279   -3.0163   59.1510 H       1  UNL         0.0280
     46 H          -7.8793   -1.9143   60.5227 H       1  UNL         0.0280
     47 H          -9.5594    3.9706   58.4662 H       1  UNL         0.0402
     48 H         -10.3690    3.9552   56.2252 H       1  UNL         0.0288
     49 H         -10.9249    2.4408   56.9284 H       1  UNL         0.0288
     50 H         -10.0241    2.1378   54.6223 H       1  UNL         0.0431
     51 H          -9.1023    1.2001   55.8113 H       1  UNL         0.0431
     52 H          -6.2780    3.7272   55.7612 H       1  UNL         0.0431
     53 H          -6.7105    2.1706   56.4753 H       1  UNL         0.0431
     54 H          -7.9569    4.9009   57.0341 H       1  UNL         0.0288
     55 H          -7.0415    3.9129   58.1652 H       1  UNL         0.0288
     56 H          -7.6013    1.2418   53.8193 H       1  UNL         0.0455
     57 H          -6.4117    2.5460   53.8034 H       1  UNL         0.0455
     58 H          -8.1135    3.9757   52.5181 H       1  UNL         0.0586
     59 H          -9.1323    2.5193   52.3851 H       1  UNL         0.0586
     60 H          -6.1931    4.7038   52.0739 H       1  UNL         0.0652
     61 H          -3.7484    5.1813   52.1259 H       1  UNL         0.0639
     62 H          -2.9324    1.1444   50.8329 H       1  UNL         0.0655
     63 H         -11.9314    1.8616   60.0364 H       1  UNL         0.0433
     64 H         -11.2978    2.9777   58.8046 H       1  UNL         0.0433
     65 H         -10.8005    3.1635   60.5111 H       1  UNL         0.0433
     66 H          -7.3391    1.2454   63.4923 H       1  UNL         0.0280
     67 H          -7.6479    1.7246   61.8214 H       1  UNL         0.0280
     68 H          -7.4677    0.0068   62.2390 H       1  UNL         0.0280
@<TRIPOS>BOND
     1     1     2   ar
     2     1     6   ar
     3     1    37    1
     4     2     3   ar
     5     2    38    1
     6     3     4   ar
     7     3    36    1
     8     4     5   ar
     9     4     7    1
    10     5     6   ar
    11     6    39    1
    12     7     8    1
    13     7    15    1
    14     7    40    1
    15     8     9   ar
    16     8    13   ar
    17     9    10   ar
    18     9    14    1
    19    10    11   ar
    20    10    41    1
    21    11    12   ar
    22    11    42    1
    23    12    13   ar
    24    12    43    1
    25    14    44    1
    26    14    45    1
    27    14    46    1
    28    15    16   am
    29    15    35    1
    30    16    17    2
    31    16    18    1
    32    18    19    1
    33    18    23    1
    34    18    47    1
    35    19    20    1
    36    19    48    1
    37    19    49    1
    38    20    21    1
    39    20    50    1
    40    20    51    1
    41    21    22    1
    42    21    24    1
    43    22    23    1
    44    22    52    1
    45    22    53    1
    46    23    54    1
    47    23    55    1
    48    24    25    1
    49    24    56    1
    50    24    57    1
    51    25    26    1
    52    25    58    1
    53    25    59    1
    54    26    27    1
    55    27    28   ar
    56    27    32   ar
    57    28    29   ar
    58    28    60    1
    59    29    30   ar
    60    29    61    1
    61    30    31   ar
    62    30    34    1
    63    31    32   ar
    64    31    62    1
    65    32    33    1
    66    35    63    1
    67    35    64    1
    68    35    65    1
    69    36    66    1
    70    36    67    1
    71    36    68    1
@<TRIPOS>SUBSTRUCTURE
     1 UNL         1 TEMP              0 ****  ****    0 ROOT


##########                                Name:    ZINC000912668252
##########                DOCK_Rotatable_Bonds:                  10
##########                         Heavy_Atoms:                  30
##########                    Molecular_Weight:             411.433
##########                DOCK_Rotatable_Bonds:                  10
##########                       Formal_Charge:           0.0199993
##########                     HBond_Acceptors:                   8
##########                        HBond_Donors:                   2
##########                         Heavy_Atoms:                  30
##########                          Grid_Score:          -36.744663
##########                     Grid_vdw_energy:          -36.388554
##########                      Grid_es_energy:           -0.356110
##########           Internal_energy_repulsive:           16.724943

@<TRIPOS>MOLECULE
ZINC000912668252
 52 54 1 0 0
SMALL
USER_CHARGES


@<TRIPOS>ATOM
      1 C1         -9.7192   -0.3066   65.0713 C.3     1  ZINC000912668252   -0.1700
      2 C2        -10.3701    0.5038   63.9487 C.3     1  ZINC000912668252    0.1100
      3 N3         -9.9390   -0.0244   62.6520 N.am    1  ZINC000912668252   -0.6100
      4 C4         -8.5113   -0.1749   62.3603 C.3     1  ZINC000912668252    0.1000
      5 C5         -7.7698    1.0987   62.7716 C.3     1  ZINC000912668252   -0.1800
      6 C6        -10.8560   -0.3720   61.7274 C.2     1  ZINC000912668252    0.5600
      7 O7        -12.0406   -0.2472   61.9694 O.2     1  ZINC000912668252   -0.5300
      8 C8        -10.4209   -0.9051   60.4187 C.ar    1  ZINC000912668252   -0.1100
      9 C9        -10.3429   -2.2837   60.2151 C.ar    1  ZINC000912668252   -0.1100
     10 C10        -9.9370   -2.7788   58.9923 C.ar    1  ZINC000912668252   -0.1000
     11 C11        -9.6067   -1.9135   57.9663 C.ar    1  ZINC000912668252   -0.1200
     12 C12        -9.6812   -0.5390   58.1591 C.ar    1  ZINC000912668252    0.1400
     13 N13        -9.3460    0.3329   57.1168 N.am    1  ZINC000912668252   -0.6700
     14 C14       -10.2711    0.6699   56.1964 C.2     1  ZINC000912668252    0.5200
     15 O15       -11.3939    0.2177   56.2713 O.2     1  ZINC000912668252   -0.4900
     16 C16        -9.9101    1.6087   55.0741 C.3     1  ZINC000912668252    0.0500
     17 O17        -9.6358    0.8426   53.8715 O.3     1  ZINC000912668252   -0.3300
     18 C18        -9.2771    1.5363   52.7723 C.2     1  ZINC000912668252    0.5400
     19 O19       -10.0987    2.2144   52.1865 O.2     1  ZINC000912668252   -0.4800
     20 C20        -7.8937    1.4727   52.2826 C.2     1  ZINC000912668252    0.0400
     21 C21        -6.9348    2.4105   52.5051 C.2     1  ZINC000912668252   -0.0900
     22 C22        -5.7488    1.9743   51.8674 C.ar    1  ZINC000912668252   -0.1000
     23 C23        -4.4618    2.5166   51.7558 C.ar    1  ZINC000912668252   -0.0900
     24 C24        -3.4997    1.8443   51.0560 C.ar    1  ZINC000912668252    0.0700
     25 F25        -2.2593    2.3690   50.9496 F       1  ZINC000912668252   -0.1400
     26 C26        -3.7864    0.6243   50.4528 C.ar    1  ZINC000912668252   -0.1100
     27 C27        -5.0444    0.0725   50.5489 C.ar    1  ZINC000912668252   -0.1000
     28 C28        -6.0407    0.7389   51.2565 C.ar    1  ZINC000912668252    0.1100
     29 N29        -7.3575    0.4473   51.5274 N.pl3   1  ZINC000912668252   -0.5600
     30 C30       -10.0927   -0.0319   59.3815 C.ar    1  ZINC000912668252   -0.0700
     31 H31       -10.0400    0.0864   66.0362 H       1  ZINC000912668252    0.0700
     32 H32       -10.0193   -1.3510   64.9866 H       1  ZINC000912668252    0.0600
     33 H33        -8.6347   -0.2325   64.9913 H       1  ZINC000912668252    0.0600
     34 H34       -11.4547    0.4296   64.0288 H       1  ZINC000912668252    0.0800
     35 H35       -10.0701    1.5482   64.0335 H       1  ZINC000912668252    0.0900
     36 H36        -8.1140   -1.0229   62.9181 H       1  ZINC000912668252    0.0900
     37 H37        -8.3747   -0.3461   61.2926 H       1  ZINC000912668252    0.0800
     38 H38        -7.8717    1.8480   61.9866 H       1  ZINC000912668252    0.0600
     39 H39        -8.1950    1.4834   63.6986 H       1  ZINC000912668252    0.0700
     40 H40        -6.7143    0.8719   62.9226 H       1  ZINC000912668252    0.0700
     41 H41       -10.5999   -2.9630   61.0143 H       1  ZINC000912668252    0.1400
     42 H42        -9.8769   -3.8457   58.8368 H       1  ZINC000912668252    0.1400
     43 H43        -9.2894   -2.3067   57.0119 H       1  ZINC000912668252    0.1300
     44 H44        -8.4479    0.6946   57.0569 H       1  ZINC000912668252    0.4200
     45 H45       -10.7406    2.2902   54.8892 H       1  ZINC000912668252    0.1100
     46 H46        -9.0247    2.1814   55.3500 H       1  ZINC000912668252    0.1100
     47 H47        -7.0565    3.3247   53.0670 H       1  ZINC000912668252    0.1700
     48 H48        -4.2308    3.4634   52.2212 H       1  ZINC000912668252    0.1400
     49 H49        -3.0152    0.1050   49.9034 H       1  ZINC000912668252    0.1400
     50 H50        -5.2575   -0.8749   50.0764 H       1  ZINC000912668252    0.1400
     51 H51        -7.8319   -0.3466   51.2349 H       1  ZINC000912668252    0.4300
     52 H52       -10.1512    1.0358   59.5332 H       1  ZINC000912668252    0.1400
@<TRIPOS>BOND
     1     1     2    1
     2     1    31    1
     3     1    32    1
     4     1    33    1
     5     2     3    1
     6     2    34    1
     7     2    35    1
     8     3     4    1
     9     3     6   am
    10     4     5    1
    11     4    36    1
    12     4    37    1
    13     5    38    1
    14     5    39    1
    15     5    40    1
    16     6     7    2
    17     6     8    1
    18     8    30   ar
    19     8     9   ar
    20     9    10   ar
    21     9    41    1
    22    10    11   ar
    23    10    42    1
    24    11    12   ar
    25    11    43    1
    26    12    13    1
    27    12    30   ar
    28    13    14   am
    29    13    44    1
    30    14    15    2
    31    14    16    1
    32    16    17    1
    33    16    45    1
    34    16    46    1
    35    17    18    1
    36    18    19    2
    37    18    20    1
    38    20    29    1
    39    20    21    2
    40    21    22    1
    41    21    47    1
    42    22    28   ar
    43    22    23   ar
    44    23    24   ar
    45    23    48    1
    46    24    25    1
    47    24    26   ar
    48    26    27   ar
    49    26    49    1
    50    27    28   ar
    51    27    50    1
    52    28    29    1
    53    29    51    1
    54    30    52    1
@<TRIPOS>SUBSTRUCTURE
     1 ZINC000912668252        1 TEMP              0 ****  ****    0 ROOT


##########                                Name:    ZINC000980108339
##########                DOCK_Rotatable_Bonds:                   9
##########                         Heavy_Atoms:                  25
##########                    Molecular_Weight:             348.445
##########                DOCK_Rotatable_Bonds:                   9
##########                       Formal_Charge:          -0.0100001
##########                     HBond_Acceptors:                   7
##########                        HBond_Donors:                   3
##########                         Heavy_Atoms:                  25
##########                          Grid_Score:          -36.519875
##########                     Grid_vdw_energy:          -34.098824
##########                      Grid_es_energy:           -2.421051
##########           Internal_energy_repulsive:            7.598413

@<TRIPOS>MOLECULE
ZINC000980108339
 53 56 1 0 0
SMALL
USER_CHARGES


@<TRIPOS>ATOM
      1 C1         -7.8223    2.0779   53.4451 C.3     1  ZINC000980108339    0.1200
      2 N2         -7.1821    1.7163   52.1779 N.am    1  ZINC000980108339   -0.6400
      3 C3         -6.1049    2.4721   51.5215 C.3     1  ZINC000980108339    0.1100
      4 C4         -5.8115    1.6622   50.2437 C.3     1  ZINC000980108339    0.1000
      5 H5         -6.0029    2.2652   49.3560 H       1  ZINC000980108339    0.1200
      6 C6         -4.3886    1.1657   50.2473 C.2     1  ZINC000980108339    0.5000
      7 O7         -4.1472    0.0149   49.9500 O.2     1  ZINC000980108339   -0.5200
      8 N8         -3.3844    2.0004   50.5807 N.am    1  ZINC000980108339   -0.7200
      9 C9         -2.0015    1.5174   50.5859 C.3     1  ZINC000980108339    0.1300
     10 C10        -1.3637    1.7815   49.2205 C.3     1  ZINC000980108339   -0.1200
     11 H11        -2.0738    1.6956   48.3980 H       1  ZINC000980108339    0.1000
     12 C12        -0.5189    3.0655   49.1732 C.3     1  ZINC000980108339   -0.1400
     13 C13         0.4881    2.2776   48.3186 C.3     1  ZINC000980108339    0.1200
     14 H14         1.5288    2.4900   48.5633 H       1  ZINC000980108339    0.1100
     15 N15         0.2166    2.3453   46.8806 N.am    1  ZINC000980108339   -0.7200
     16 C16         1.2073    2.1153   45.9962 C.2     1  ZINC000980108339    0.5200
     17 O17         2.3233    1.8509   46.3910 O.2     1  ZINC000980108339   -0.5300
     18 C18         0.9285    2.1866   44.5169 C.3     1  ZINC000980108339   -0.1100
     19 C19         1.2177    3.6012   44.0110 C.3     1  ZINC000980108339   -0.1300
     20 H20         2.2651    3.8219   43.8049 H       1  ZINC000980108339    0.1200
     21 C21         0.3503    4.7375   44.5563 C.3     1  ZINC000980108339   -0.1700
     22 C22         0.1673    4.2590   43.1138 C.3     1  ZINC000980108339   -0.1200
     23 H23        -0.7298    3.6842   42.8842 H       1  ZINC000980108339    0.1000
     24 C24         0.6668    5.1770   41.9964 C.3     1  ZINC000980108339   -0.1300
     25 C25        -0.3095    5.5100   40.8663 C.3     1  ZINC000980108339   -0.1800
     26 C26         0.0527    6.5752   41.9032 C.3     1  ZINC000980108339   -0.1800
     27 C27        -0.0571    1.0040   48.9899 C.3     1  ZINC000980108339   -0.1400
     28 N28        -6.7545    0.5361   50.3159 N.am    1  ZINC000980108339   -0.7200
     29 C29        -7.4811    0.6417   51.4363 C.2     1  ZINC000980108339    0.7000
     30 O30        -8.3404   -0.1603   51.7472 O.2     1  ZINC000980108339   -0.5800
     31 H31        -8.5820    1.3365   53.6929 H       1  ZINC000980108339    0.0900
     32 H32        -7.0724    2.1078   54.2356 H       1  ZINC000980108339    0.0600
     33 H33        -8.2889    3.0584   53.3497 H       1  ZINC000980108339    0.0600
     34 H34        -6.4422    3.4773   51.2683 H       1  ZINC000980108339    0.1000
     35 H35        -5.2224    2.5129   52.1597 H       1  ZINC000980108339    0.0900
     36 H36        -3.5774    2.9212   50.8172 H       1  ZINC000980108339    0.4000
     37 H37        -1.4368    2.0402   51.3578 H       1  ZINC000980108339    0.0700
     38 H38        -1.9913    0.4468   50.7906 H       1  ZINC000980108339    0.0700
     39 H39        -0.9989    3.8848   48.6380 H       1  ZINC000980108339    0.0800
     40 H40        -0.1262    3.3658   50.1447 H       1  ZINC000980108339    0.1000
     41 H41        -0.6762    2.5555   46.5649 H       1  ZINC000980108339    0.4000
     42 H42         1.5668    1.4755   43.9923 H       1  ZINC000980108339    0.1000
     43 H43        -0.1172    1.9412   44.3320 H       1  ZINC000980108339    0.1000
     44 H44        -0.4264    4.4772   45.2755 H       1  ZINC000980108339    0.0900
     45 H45         0.8269    5.7058   44.7087 H       1  ZINC000980108339    0.1000
     46 H46         1.7203    5.0717   41.7371 H       1  ZINC000980108339    0.1000
     47 H47         0.1017    5.6238   39.8632 H       1  ZINC000980108339    0.0900
     48 H48        -1.3074    5.0751   40.9190 H       1  ZINC000980108339    0.0900
     49 H49        -0.7072    6.8412   42.6380 H       1  ZINC000980108339    0.0900
     50 H50         0.7020    7.3897   41.5823 H       1  ZINC000980108339    0.0900
     51 H51         0.4614    0.7401   49.9116 H       1  ZINC000980108339    0.1000
     52 H52        -0.1634    0.1615   48.3066 H       1  ZINC000980108339    0.0800
     53 H53        -6.8347   -0.1728   49.6587 H       1  ZINC000980108339    0.4400
@<TRIPOS>BOND
     1     1     2    1
     2     1    31    1
     3     1    32    1
     4     1    33    1
     5     2    29   am
     6     2     3    1
     7     3     4    1
     8     3    34    1
     9     3    35    1
    10     4     5    1
    11     4     6    1
    12     4    28    1
    13     6     7    2
    14     6     8   am
    15     8     9    1
    16     8    36    1
    17     9    10    1
    18     9    37    1
    19     9    38    1
    20    10    11    1
    21    10    27    1
    22    10    12    1
    23    12    13    1
    24    12    39    1
    25    12    40    1
    26    13    14    1
    27    13    15    1
    28    13    27    1
    29    15    16   am
    30    15    41    1
    31    16    17    2
    32    16    18    1
    33    18    19    1
    34    18    42    1
    35    18    43    1
    36    19    20    1
    37    19    22    1
    38    19    21    1
    39    21    22    1
    40    21    44    1
    41    21    45    1
    42    22    23    1
    43    22    24    1
    44    24    26    1
    45    24    25    1
    46    24    46    1
    47    25    26    1
    48    25    47    1
    49    25    48    1
    50    26    49    1
    51    26    50    1
    52    27    51    1
    53    27    52    1
    54    28    29   am
    55    28    53    1
    56    29    30    2
@<TRIPOS>SUBSTRUCTURE
     1 ZINC000980108339        1 TEMP              0 ****  ****    0 ROOT


##########                                Name:    ZINC000410354665
##########                DOCK_Rotatable_Bonds:                   7
##########                         Heavy_Atoms:                  29
##########                    Molecular_Weight:             417.889
##########                DOCK_Rotatable_Bonds:                   7
##########                       Formal_Charge:        -3.72529e-08
##########                     HBond_Acceptors:                   7
##########                        HBond_Donors:                   1
##########                         Heavy_Atoms:                  29
##########                          Grid_Score:          -36.486828
##########                     Grid_vdw_energy:          -36.720242
##########                      Grid_es_energy:            0.233415
##########           Internal_energy_repulsive:           21.268267

@<TRIPOS>MOLECULE
ZINC000410354665
 53 56 1 0 0
SMALL
USER_CHARGES


@<TRIPOS>ATOM
      1 C1          3.3819    3.7505   55.8038 C.3     1  ZINC000410354665    0.0200
      2 O2          2.9340    3.0513   56.9667 O.3     1  ZINC000410354665   -0.3000
      3 C3          1.5953    2.8414   57.0835 C.ar    1  ZINC000410354665    0.0900
      4 C4          0.7287    3.3745   56.1497 C.ar    1  ZINC000410354665   -0.1100
      5 C5         -0.6464    3.1564   56.2725 C.ar    1  ZINC000410354665   -0.1400
      6 C6         -1.5770    3.7235   55.2769 C.2     1  ZINC000410354665    0.5700
      7 O7         -2.7756    3.6940   55.4791 O.2     1  ZINC000410354665   -0.5300
      8 N8         -1.0981    4.2740   54.1438 N.am    1  ZINC000410354665   -0.7200
      9 C9         -2.0216    4.8384   53.1565 C.3     1  ZINC000410354665    0.1700
     10 C10        -2.6333    3.7245   52.3465 C.ar    1  ZINC000410354665   -0.1000
     11 C11        -1.8333    2.9410   51.5362 C.ar    1  ZINC000410354665   -0.0900
     12 C12        -2.3916    1.9192   50.7896 C.ar    1  ZINC000410354665   -0.0300
     13 Cl13       -1.3837    0.9374   49.7726 Cl      1  ZINC000410354665   -0.0400
     14 C14        -3.7566    1.6779   50.8533 C.ar    1  ZINC000410354665    0.0700
     15 O15        -4.2933    0.6737   50.1070 O.3     1  ZINC000410354665   -0.2900
     16 C16        -5.6005    0.2235   50.4792 C.3     1  ZINC000410354665    0.0200
     17 C17        -6.4861    1.4556   50.7086 C.3     1  ZINC000410354665    0.0200
     18 O18        -5.8999    2.2409   51.7525 O.3     1  ZINC000410354665   -0.3000
     19 C19        -4.5596    2.4635   51.6711 C.ar    1  ZINC000410354665    0.0600
     20 C20        -3.9926    3.4844   52.4196 C.ar    1  ZINC000410354665   -0.0900
     21 C21        -1.1380    2.4004   57.3390 C.ar    1  ZINC000410354665   -0.0800
     22 C22        -0.2678    1.8715   58.2678 C.ar    1  ZINC000410354665   -0.1900
     23 C23         1.0983    2.0830   58.1429 C.ar    1  ZINC000410354665    0.1400
     24 O24         1.9516    1.5599   59.0605 O.3     1  ZINC000410354665   -0.2900
     25 C25         1.3875    0.7072   60.0590 C.3     1  ZINC000410354665    0.0700
     26 C26         2.5009   -0.0880   60.7847 C.3     1  ZINC000410354665   -0.1500
     27 C27         1.8405   -0.4409   62.1406 C.3     1  ZINC000410354665   -0.1200
     28 C28         1.0192    0.8146   62.4996 C.3     1  ZINC000410354665   -0.1200
     29 C29         0.7312    1.5446   61.1760 C.3     1  ZINC000410354665   -0.1200
     30 H30         3.0938    3.1943   54.9119 H       1  ZINC000410354665    0.0600
     31 H31         2.9269    4.7406   55.7774 H       1  ZINC000410354665    0.0600
     32 H32         4.4670    3.8500   55.8353 H       1  ZINC000410354665    0.1000
     33 H33         1.1126    3.9589   55.3266 H       1  ZINC000410354665    0.1500
     34 H34        -0.1420    4.2964   53.9819 H       1  ZINC000410354665    0.4000
     35 H35        -2.8097    5.3896   53.6695 H       1  ZINC000410354665    0.0800
     36 H36        -1.4784    5.5128   52.4946 H       1  ZINC000410354665    0.0900
     37 H37        -0.7707    3.1273   51.4857 H       1  ZINC000410354665    0.1500
     38 H38        -6.0203   -0.3872   49.6798 H       1  ZINC000410354665    0.1300
     39 H39        -5.5402   -0.3618   51.3966 H       1  ZINC000410354665    0.0800
     40 H40        -6.5416    2.0442   49.7929 H       1  ZINC000410354665    0.0800
     41 H41        -7.4864    1.1394   51.0041 H       1  ZINC000410354665    0.1300
     42 H42        -4.6146    4.0949   53.0574 H       1  ZINC000410354665    0.1400
     43 H43        -2.2002    2.2305   57.4359 H       1  ZINC000410354665    0.1300
     44 H44        -0.6494    1.2873   59.0922 H       1  ZINC000410354665    0.1400
     45 H45         0.6600    0.0288   59.6133 H       1  ZINC000410354665    0.0800
     46 H46         2.7534   -0.9923   60.2310 H       1  ZINC000410354665    0.0700
     47 H47         3.3839    0.5332   60.9352 H       1  ZINC000410354665    0.0800
     48 H48         1.1869   -1.3065   62.0328 H       1  ZINC000410354665    0.0700
     49 H49         2.6015   -0.6285   62.8982 H       1  ZINC000410354665    0.0700
     50 H50         0.0834    0.5246   62.9774 H       1  ZINC000410354665    0.0700
     51 H51         1.5942    1.4595   63.1642 H       1  ZINC000410354665    0.0700
     52 H52         1.1663    2.5438   61.1983 H       1  ZINC000410354665    0.0800
     53 H53        -0.3444    1.6090   61.0116 H       1  ZINC000410354665    0.0700
@<TRIPOS>BOND
     1     1     2    1
     2     1    30    1
     3     1    31    1
     4     1    32    1
     5     2     3    1
     6     3    23   ar
     7     3     4   ar
     8     4     5   ar
     9     4    33    1
    10     5     6    1
    11     5    21   ar
    12     6     7    2
    13     6     8   am
    14     8     9    1
    15     8    34    1
    16     9    10    1
    17     9    35    1
    18     9    36    1
    19    10    20   ar
    20    10    11   ar
    21    11    12   ar
    22    11    37    1
    23    12    13    1
    24    12    14   ar
    25    14    19   ar
    26    14    15    1
    27    15    16    1
    28    16    17    1
    29    16    38    1
    30    16    39    1
    31    17    18    1
    32    17    40    1
    33    17    41    1
    34    18    19    1
    35    19    20   ar
    36    20    42    1
    37    21    22   ar
    38    21    43    1
    39    22    23   ar
    40    22    44    1
    41    23    24    1
    42    24    25    1
    43    25    29    1
    44    25    26    1
    45    25    45    1
    46    26    27    1
    47    26    46    1
    48    26    47    1
    49    27    28    1
    50    27    48    1
    51    27    49    1
    52    28    29    1
    53    28    50    1
    54    28    51    1
    55    29    52    1
    56    29    53    1
@<TRIPOS>SUBSTRUCTURE
     1 ZINC000410354665        1 TEMP              0 ****  ****    0 ROOT


##########                                Name:    ZINC000467185792
##########                DOCK_Rotatable_Bonds:                   9
##########                         Heavy_Atoms:                  29
##########                    Molecular_Weight:             412.513
##########                DOCK_Rotatable_Bonds:                   9
##########                       Formal_Charge:                0.04
##########                     HBond_Acceptors:                   8
##########                        HBond_Donors:                   2
##########                         Heavy_Atoms:                  29
##########                          Grid_Score:          -36.469650
##########                     Grid_vdw_energy:          -34.916004
##########                      Grid_es_energy:           -1.553647
##########           Internal_energy_repulsive:           21.504328

@<TRIPOS>MOLECULE
ZINC000467185792
 53 55 1 0 0
SMALL
USER_CHARGES


@<TRIPOS>ATOM
      1 C1        -11.1473    1.9756   54.2132 C.3     1  ZINC000467185792   -0.1500
      2 C2        -10.4287    1.0462   53.2330 C.3     1  ZINC000467185792   -0.1200
      3 C3         -8.9885    1.5250   53.0389 C.3     1  ZINC000467185792    0.0600
      4 O4         -8.3297    0.6814   52.0921 O.3     1  ZINC000467185792   -0.3100
      5 C5         -7.0311    0.9668   51.8101 C.ar    1  ZINC000467185792    0.1400
      6 C6         -6.3718    1.9631   52.5169 C.ar    1  ZINC000467185792   -0.2100
      7 C7         -5.0538    2.2548   52.2334 C.ar    1  ZINC000467185792   -0.0400
      8 C8         -4.3840    1.5479   51.2360 C.ar    1  ZINC000467185792   -0.0600
      9 C9         -2.9664    1.8588   50.9290 C.2     1  ZINC000467185792    0.1400
     10 C10        -2.2488    2.7339   51.6557 C.2     1  ZINC000467185792   -0.3000
     11 S11        -0.6268    2.8183   50.9720 S.3     1  ZINC000467185792    0.2000
     12 C12        -1.0821    1.6398   49.7451 C.2     1  ZINC000467185792    0.2800
     13 N13        -0.2469    1.1573   48.7467 N.am    1  ZINC000467185792   -0.6100
     14 C14         0.3546    2.0148   47.8985 C.2     1  ZINC000467185792    0.5900
     15 O15         0.1656    3.2112   48.0077 O.2     1  ZINC000467185792   -0.4900
     16 C16         1.2412    1.5027   46.8388 C.2     1  ZINC000467185792   -0.2400
     17 C17         0.7592    1.2319   45.5597 C.2     1  ZINC000467185792    0.0800
     18 C18        -0.6905    1.4545   45.2136 C.3     1  ZINC000467185792   -0.1200
     19 C19        -0.8789    2.8839   44.7013 C.3     1  ZINC000467185792   -0.1400
     20 C20         1.6621    0.7472   44.6055 C.2     1  ZINC000467185792    0.0600
     21 C21         1.1816    0.4423   43.2100 C.3     1  ZINC000467185792   -0.0600
     22 C22         2.3859    0.2730   42.2816 C.3     1  ZINC000467185792   -0.1500
     23 N23         2.9163    0.5577   44.9136 N.2     1  ZINC000467185792   -0.1800
     24 N24         3.3926    0.7964   46.0802 N.am    1  ZINC000467185792   -0.4300
     25 C25         2.6248    1.2707   47.0800 C.2     1  ZINC000467185792    0.5000
     26 O26         3.1056    1.4881   48.1789 O.2     1  ZINC000467185792   -0.5300
     27 N27        -2.3182    1.2891   49.9229 N.2     1  ZINC000467185792   -0.5000
     28 C28        -5.0490    0.5481   50.5280 C.ar    1  ZINC000467185792   -0.0600
     29 C29        -6.3654    0.2576   50.8199 C.ar    1  ZINC000467185792   -0.1500
     30 H30       -11.1522    2.9901   53.8146 H       1  ZINC000467185792    0.0600
     31 H31       -12.1733    1.6346   54.3514 H       1  ZINC000467185792    0.0700
     32 H32       -10.6283    1.9644   55.1716 H       1  ZINC000467185792    0.0600
     33 H33       -10.4237    0.0317   53.6316 H       1  ZINC000467185792    0.0700
     34 H34       -10.9477    1.0576   52.2746 H       1  ZINC000467185792    0.0700
     35 H35        -8.9932    2.5507   52.6701 H       1  ZINC000467185792    0.0600
     36 H36        -8.4604    1.4838   53.9915 H       1  ZINC000467185792    0.0600
     37 H37        -6.8914    2.5106   53.2893 H       1  ZINC000467185792    0.1300
     38 H38        -4.5414    3.0303   52.7835 H       1  ZINC000467185792    0.1300
     39 H39        -2.6051    3.2893   52.5107 H       1  ZINC000467185792    0.1800
     40 H40        -0.0960    0.2031   48.6596 H       1  ZINC000467185792    0.4400
     41 H41        -0.9918    0.7486   44.4396 H       1  ZINC000467185792    0.0900
     42 H42        -1.3036    1.3032   46.1021 H       1  ZINC000467185792    0.1300
     43 H43        -0.5776    3.5899   45.4753 H       1  ZINC000467185792    0.0600
     44 H44        -0.2658    3.0352   43.8129 H       1  ZINC000467185792    0.0600
     45 H45        -1.9275    3.0449   44.4510 H       1  ZINC000467185792    0.0700
     46 H46         0.5981   -0.4784   43.2198 H       1  ZINC000467185792    0.1000
     47 H47         0.5597    1.2629   42.8524 H       1  ZINC000467185792    0.1000
     48 H48         2.0383    0.0524   41.2723 H       1  ZINC000467185792    0.0600
     49 H49         2.9694    1.1936   42.2719 H       1  ZINC000467185792    0.0600
     50 H50         3.0078   -0.5476   42.6392 H       1  ZINC000467185792    0.0600
     51 H51         4.3346    0.6346   46.2462 H       1  ZINC000467185792    0.4500
     52 H52        -4.5329   -0.0010   49.7545 H       1  ZINC000467185792    0.1300
     53 H53        -6.8810   -0.5172   50.2720 H       1  ZINC000467185792    0.1400
@<TRIPOS>BOND
     1     1     2    1
     2     1    30    1
     3     1    31    1
     4     1    32    1
     5     2     3    1
     6     2    33    1
     7     2    34    1
     8     3     4    1
     9     3    35    1
    10     3    36    1
    11     4     5    1
    12     5    29   ar
    13     5     6   ar
    14     6     7   ar
    15     6    37    1
    16     7     8   ar
    17     7    38    1
    18     8     9    1
    19     8    28   ar
    20     9    27    1
    21     9    10    2
    22    10    11    1
    23    10    39    1
    24    11    12    1
    25    12    13    1
    26    12    27    2
    27    13    14   am
    28    13    40    1
    29    14    15    2
    30    14    16    1
    31    16    25    1
    32    16    17    2
    33    17    18    1
    34    17    20    1
    35    18    19    1
    36    18    41    1
    37    18    42    1
    38    19    43    1
    39    19    44    1
    40    19    45    1
    41    20    21    1
    42    20    23    2
    43    21    22    1
    44    21    46    1
    45    21    47    1
    46    22    48    1
    47    22    49    1
    48    22    50    1
    49    23    24    1
    50    24    25   am
    51    24    51    1
    52    25    26    2
    53    28    29   ar
    54    28    52    1
    55    29    53    1
@<TRIPOS>SUBSTRUCTURE
     1 ZINC000467185792        1 TEMP              0 ****  ****    0 ROOT


##########                                Name:    ZINC000428266315
##########                DOCK_Rotatable_Bonds:                  10
##########                         Heavy_Atoms:                  30
##########                    Molecular_Weight:             423.438
##########                DOCK_Rotatable_Bonds:                  10
##########                       Formal_Charge:          0.00999977
##########                     HBond_Acceptors:                  10
##########                        HBond_Donors:                   0
##########                         Heavy_Atoms:                  30
##########                          Grid_Score:          -36.414234
##########                     Grid_vdw_energy:          -36.596237
##########                      Grid_es_energy:            0.182003
##########           Internal_energy_repulsive:           10.617698

@<TRIPOS>MOLECULE
ZINC000428266315
 54 56 1 0 0
SMALL
USER_CHARGES


@<TRIPOS>ATOM
      1 C1         -0.6312    2.2001   58.0554 C.3     1  ZINC000428266315   -0.1500
      2 C2         -1.1550    3.3459   57.1871 C.3     1  ZINC000428266315    0.0600
      3 O3         -2.3949    2.9620   56.5893 O.3     1  ZINC000428266315   -0.3700
      4 C4         -3.0348    4.0079   55.8555 C.3     1  ZINC000428266315    0.1800
      5 H5         -3.1318    4.8895   56.4892 H       1  ZINC000428266315    0.0900
      6 C6         -2.1951    4.3548   54.6244 C.3     1  ZINC000428266315   -0.1700
      7 C7         -4.4025    3.5507   55.4181 C.2     1  ZINC000428266315    0.1700
      8 N8         -5.2716    2.9176   56.1478 N.2     1  ZINC000428266315   -0.3500
      9 O9         -6.2751    2.6924   55.5048 O.3     1  ZINC000428266315    0.0800
     10 C10        -6.1374    3.1750   54.2663 C.2     1  ZINC000428266315    0.1900
     11 C11        -7.1545    3.1027   53.1566 C.3     1  ZINC000428266315    0.1500
     12 N12        -6.6851    2.1714   52.1220 N.3     1  ZINC000428266315   -0.5300
     13 C13        -7.8008    1.3907   51.5710 C.3     1  ZINC000428266315    0.0200
     14 C14        -5.9661    2.8852   51.0583 C.3     1  ZINC000428266315    0.1400
     15 C15        -4.7013    2.1393   50.7190 C.2     1  ZINC000428266315   -0.2300
     16 C16        -3.4419    2.6260   50.8081 C.2     1  ZINC000428266315    0.0800
     17 N17        -2.5954    1.6510   50.4157 N.pl3   1  ZINC000428266315   -0.3700
     18 C18        -1.1349    1.7494   50.3576 C.3     1  ZINC000428266315    0.1700
     19 C19        -0.7022    1.9624   48.9299 C.ar    1  ZINC000428266315   -0.0800
     20 C20         0.0332    0.9903   48.2781 C.ar    1  ZINC000428266315   -0.1000
     21 C21         0.4301    1.1857   46.9685 C.ar    1  ZINC000428266315   -0.0700
     22 C22         0.0912    2.3532   46.3105 C.ar    1  ZINC000428266315   -0.1700
     23 C23         0.5243    2.5665   44.8829 C.3     1  ZINC000428266315    0.5100
     24 F24         0.1824    3.8620   44.4805 F       1  ZINC000428266315   -0.1700
     25 F25         1.9098    2.3985   44.7859 F       1  ZINC000428266315   -0.1800
     26 F26        -0.1172    1.6371   44.0572 F       1  ZINC000428266315   -0.1800
     27 C27        -0.6453    3.3249   46.9619 C.ar    1  ZINC000428266315   -0.0700
     28 C28        -1.0455    3.1277   48.2702 C.ar    1  ZINC000428266315   -0.0800
     29 N29        -3.3600    0.5280   50.0742 N.2     1  ZINC000428266315   -0.2900
     30 C30        -4.6215    0.8198   50.2621 C.2     1  ZINC000428266315    0.0600
     31 N31        -4.9501    3.7280   54.2025 N.2     1  ZINC000428266315   -0.4600
     32 H32         0.3146    2.4929   58.5114 H       1  ZINC000428266315    0.0700
     33 H33        -1.3571    1.9753   58.8368 H       1  ZINC000428266315    0.0600
     34 H34        -0.4780    1.3160   57.4366 H       1  ZINC000428266315    0.0600
     35 H35        -1.3083    4.2300   57.8059 H       1  ZINC000428266315    0.0500
     36 H36        -0.4290    3.5706   56.4057 H       1  ZINC000428266315    0.0500
     37 H37        -2.0980    3.4732   53.9907 H       1  ZINC000428266315    0.0700
     38 H38        -2.6832    5.1526   54.0647 H       1  ZINC000428266315    0.0700
     39 H39        -1.2058    4.6856   54.9408 H       1  ZINC000428266315    0.0700
     40 H40        -8.1053    2.7512   53.5574 H       1  ZINC000428266315    0.0800
     41 H41        -7.2877    4.0928   52.7207 H       1  ZINC000428266315    0.1200
     42 H42        -8.5327    2.0660   51.1275 H       1  ZINC000428266315    0.0400
     43 H43        -7.4255    0.7095   50.8074 H       1  ZINC000428266315    0.0800
     44 H44        -8.2723    0.8176   52.3692 H       1  ZINC000428266315    0.0600
     45 H45        -6.5984    2.9500   50.1727 H       1  ZINC000428266315    0.0500
     46 H46        -5.7152    3.8894   51.4000 H       1  ZINC000428266315    0.0900
     47 H47        -3.1639    3.6173   51.1347 H       1  ZINC000428266315    0.1700
     48 H48        -0.8027    2.5898   50.9672 H       1  ZINC000428266315    0.1000
     49 H49        -0.6933    0.8281   50.7375 H       1  ZINC000428266315    0.1100
     50 H50         0.2980    0.0781   48.7922 H       1  ZINC000428266315    0.1300
     51 H51         1.0052    0.4263   46.4594 H       1  ZINC000428266315    0.1400
     52 H52        -0.9104    4.2369   46.4476 H       1  ZINC000428266315    0.1400
     53 H53        -1.6210    3.8869   48.7792 H       1  ZINC000428266315    0.1400
     54 H54        -5.4573    0.1586   50.0871 H       1  ZINC000428266315    0.1800
@<TRIPOS>BOND
     1     1     2    1
     2     1    32    1
     3     1    33    1
     4     1    34    1
     5     2     3    1
     6     2    35    1
     7     2    36    1
     8     3     4    1
     9     4     5    1
    10     4     6    1
    11     4     7    1
    12     6    37    1
    13     6    38    1
    14     6    39    1
    15     7    31    1
    16     7     8    2
    17     8     9    1
    18     9    10    1
    19    10    11    1
    20    10    31    2
    21    11    12    1
    22    11    40    1
    23    11    41    1
    24    12    13    1
    25    12    14    1
    26    13    42    1
    27    13    43    1
    28    13    44    1
    29    14    15    1
    30    14    45    1
    31    14    46    1
    32    15    30    1
    33    15    16    2
    34    16    17    1
    35    16    47    1
    36    17    18    1
    37    17    29    1
    38    18    19    1
    39    18    48    1
    40    18    49    1
    41    19    28   ar
    42    19    20   ar
    43    20    21   ar
    44    20    50    1
    45    21    22   ar
    46    21    51    1
    47    22    23    1
    48    22    27   ar
    49    23    24    1
    50    23    25    1
    51    23    26    1
    52    27    28   ar
    53    27    52    1
    54    28    53    1
    55    29    30    2
    56    30    54    1
@<TRIPOS>SUBSTRUCTURE
     1 ZINC000428266315        1 TEMP              0 ****  ****    0 ROOT


##########                                Name:    ZINC000439870054
##########                DOCK_Rotatable_Bonds:                   5
##########                         Heavy_Atoms:                  27
##########                    Molecular_Weight:             421.974
##########                DOCK_Rotatable_Bonds:                   5
##########                       Formal_Charge:           0.0200003
##########                     HBond_Acceptors:                   9
##########                        HBond_Donors:                   0
##########                         Heavy_Atoms:                  27
##########                          Grid_Score:          -36.270061
##########                     Grid_vdw_energy:          -36.098400
##########                      Grid_es_energy:           -0.171663
##########           Internal_energy_repulsive:           61.948090

@<TRIPOS>MOLECULE
ZINC000439870054
 47 50 1 0 0
SMALL
USER_CHARGES


@<TRIPOS>ATOM
      1 C1         -1.4297    3.6508   53.6305 C.3     1  ZINC000439870054   -0.1400
      2 C2         -1.7600    4.1010   52.2060 C.3     1  ZINC000439870054    0.0000
      3 C3         -0.4623    4.3891   51.4483 C.3     1  ZINC000439870054   -0.1400
      4 C4         -2.5231    3.0107   51.4988 C.2     1  ZINC000439870054    0.1900
      5 N5         -2.0093    1.9869   50.8670 N.2     1  ZINC000439870054   -0.2900
      6 N6         -2.9539    1.2570   50.3798 N.2     1  ZINC000439870054   -0.2700
      7 C7         -4.1020    1.7826   50.6767 C.2     1  ZINC000439870054    0.1600
      8 C8         -5.4845    1.2958   50.3149 C.3     1  ZINC000439870054    0.2400
      9 H9         -5.6637    1.4424   49.2498 H       1  ZINC000439870054    0.1100
     10 C10        -5.6253   -0.1862   50.6684 C.3     1  ZINC000439870054   -0.1300
     11 N11        -6.4423    2.0960   51.1015 N.am    1  ZINC000439870054   -0.6300
     12 C12        -7.4977    1.5159   51.7063 C.2     1  ZINC000439870054    0.5300
     13 O13        -7.6707    0.3195   51.6082 O.2     1  ZINC000439870054   -0.4900
     14 C14        -8.4628    2.3539   52.5047 C.3     1  ZINC000439870054   -0.0700
     15 C15        -9.6417    1.5091   52.9144 C.2     1  ZINC000439870054    0.0900
     16 C16       -10.7337    1.3982   52.1526 C.2     1  ZINC000439870054   -0.2400
     17 S17       -11.8736    0.3326   52.9718 S.3     1  ZINC000439870054    0.1300
     18 C18       -10.7309    0.1373   54.2984 C.2     1  ZINC000439870054    0.1400
     19 C19       -10.9499   -0.6819   55.5004 C.2     1  ZINC000439870054   -0.1300
     20 C20       -12.0839   -1.3571   55.7882 C.2     1  ZINC000439870054   -0.1000
     21 C21       -12.0517   -2.0567   56.9752 C.2     1  ZINC000439870054   -0.1200
     22 C22       -10.9051   -1.9604   57.6591 C.2     1  ZINC000439870054   -0.1500
     23 Cl23      -10.5819   -2.7321   59.1803 Cl      1  ZINC000439870054    0.0000
     24 S24        -9.7729   -0.9403   56.7817 S.3     1  ZINC000439870054    0.2500
     25 N25        -9.6567    0.8320   54.0404 N.2     1  ZINC000439870054   -0.4400
     26 C26        -6.2122    3.5449   51.2072 C.3     1  ZINC000439870054    0.0900
     27 C27        -4.8902    3.7943   51.9426 C.3     1  ZINC000439870054    0.0900
     28 N28        -3.8633    2.9039   51.4033 N.pl3   1  ZINC000439870054   -0.4700
     29 H29        -0.8778    4.4394   54.1419 H       1  ZINC000439870054    0.0700
     30 H30        -2.3542    3.4456   54.1702 H       1  ZINC000439870054    0.0500
     31 H31        -0.8219    2.7468   53.5940 H       1  ZINC000439870054    0.0700
     32 H32        -2.3678    5.0050   52.2423 H       1  ZINC000439870054    0.0800
     33 H33        -0.6976    4.7098   50.4335 H       1  ZINC000439870054    0.0500
     34 H34         0.0896    5.1777   51.9598 H       1  ZINC000439870054    0.0700
     35 H35         0.1455    3.4851   51.4120 H       1  ZINC000439870054    0.0700
     36 H36        -5.6106   -0.3042   51.7519 H       1  ZINC000439870054    0.0600
     37 H37        -6.5680   -0.5658   50.2743 H       1  ZINC000439870054    0.0900
     38 H38        -4.7976   -0.7443   50.2309 H       1  ZINC000439870054    0.0700
     39 H39        -7.9626    2.7356   53.3947 H       1  ZINC000439870054    0.1100
     40 H40        -8.8086    3.1891   51.8957 H       1  ZINC000439870054    0.1200
     41 H41       -10.8910    1.8795   51.1986 H       1  ZINC000439870054    0.1800
     42 H42       -12.9475   -1.3490   55.1398 H       1  ZINC000439870054    0.1500
     43 H43       -12.8899   -2.6394   57.3277 H       1  ZINC000439870054    0.1600
     44 H44        -6.1609    3.9790   50.2087 H       1  ZINC000439870054    0.0900
     45 H45        -7.0301    4.0036   51.7628 H       1  ZINC000439870054    0.1200
     46 H46        -4.5860    4.8317   51.8031 H       1  ZINC000439870054    0.1100
     47 H47        -5.0210    3.5920   53.0057 H       1  ZINC000439870054    0.0900
@<TRIPOS>BOND
     1     1     2    1
     2     1    29    1
     3     1    30    1
     4     1    31    1
     5     2     3    1
     6     2     4    1
     7     2    32    1
     8     3    33    1
     9     3    34    1
    10     3    35    1
    11     4    28    1
    12     4     5    2
    13     5     6    1
    14     6     7    2
    15     7    28    1
    16     7     8    1
    17     8     9    1
    18     8    10    1
    19     8    11    1
    20    10    36    1
    21    10    37    1
    22    10    38    1
    23    11    12   am
    24    11    26    1
    25    12    13    2
    26    12    14    1
    27    14    15    1
    28    14    39    1
    29    14    40    1
    30    15    25    1
    31    15    16    2
    32    16    17    1
    33    16    41    1
    34    17    18    1
    35    18    19    1
    36    18    25    2
    37    19    24    1
    38    19    20    2
    39    20    21    1
    40    20    42    1
    41    21    22    2
    42    21    43    1
    43    22    23    1
    44    22    24    1
    45    26    27    1
    46    26    44    1
    47    26    45    1
    48    27    28    1
    49    27    46    1
    50    27    47    1
@<TRIPOS>SUBSTRUCTURE
     1 ZINC000439870054        1 TEMP              0 ****  ****    0 ROOT


##########                                Name:    ZINC001461256440
##########                DOCK_Rotatable_Bonds:                  13
##########                         Heavy_Atoms:                  26
##########                    Molecular_Weight:             367.445
##########                DOCK_Rotatable_Bonds:                  13
##########                       Formal_Charge:        -6.37025e-07
##########                     HBond_Acceptors:                   8
##########                        HBond_Donors:                   1
##########                         Heavy_Atoms:                  26
##########                          Grid_Score:          -36.262768
##########                     Grid_vdw_energy:          -35.586575
##########                      Grid_es_energy:           -0.676192
##########           Internal_energy_repulsive:           15.283572

@<TRIPOS>MOLECULE
ZINC001461256440
 55 55 1 0 0
SMALL
USER_CHARGES


@<TRIPOS>ATOM
      1 C1         -0.7236    0.8346   45.0246 C.3     1  ZINC001461256440   -0.1500
      2 C2         -1.1133    1.7478   46.1887 C.3     1  ZINC001461256440    0.0600
      3 O3         -0.8478    1.0702   47.4452 O.3     1  ZINC001461256440   -0.3600
      4 C4         -1.2366    1.6943   48.5681 C.2     1  ZINC001461256440    0.4400
      5 O5         -1.4003    2.8914   48.5682 O.2     1  ZINC001461256440   -0.4800
      6 C6         -1.4687    0.9019   49.8288 C.3     1  ZINC001461256440    0.1400
      7 N7         -2.7815    1.2406   50.3837 N.pl3   1  ZINC001461256440   -0.3800
      8 N8         -4.0163    0.7555   49.9345 N.2     1  ZINC001461256440   -0.2800
      9 C9         -4.9595    1.2805   50.6741 C.2     1  ZINC001461256440    0.1000
     10 C10        -6.4378    1.0251   50.5311 C.3     1  ZINC001461256440   -0.0700
     11 C11        -4.3614    2.1175   51.6200 C.2     1  ZINC001461256440   -0.2700
     12 C12        -3.0153    2.0725   51.4244 C.2     1  ZINC001461256440    0.3100
     13 N13        -2.0523    2.7650   52.1583 N.am    1  ZINC001461256440   -0.6500
     14 C14        -2.1843    4.0908   52.3612 C.2     1  ZINC001461256440    0.5200
     15 O15        -3.1412    4.6816   51.9069 O.2     1  ZINC001461256440   -0.5000
     16 C16        -1.1429    4.8393   53.1525 C.3     1  ZINC001461256440   -0.1300
     17 C17        -1.6578    5.0810   54.5728 C.3     1  ZINC001461256440   -0.1100
     18 C18        -1.3557    3.8572   55.4400 C.3     1  ZINC001461256440   -0.1100
     19 C19        -1.1129    4.3024   56.8836 C.3     1  ZINC001461256440   -0.1200
     20 C20        -1.0524    3.0920   57.7791 C.2     1  ZINC001461256440    0.4600
     21 O21        -1.5113    2.0392   57.4038 O.2     1  ZINC001461256440   -0.5000
     22 O22        -0.4886    3.1833   58.9939 O.3     1  ZINC001461256440   -0.3500
     23 C23         0.8066    2.5507   59.1688 C.3     1  ZINC001461256440    0.1200
     24 C24         0.6094    1.0944   59.5948 C.3     1  ZINC001461256440   -0.1800
     25 C25         1.5787    2.5958   57.8488 C.3     1  ZINC001461256440   -0.1400
     26 C26         1.5963    3.2951   60.2473 C.3     1  ZINC001461256440   -0.1800
     27 H27        -0.9229    1.3432   44.0813 H       1  ZINC001461256440    0.0800
     28 H28         0.3375    0.5943   45.0907 H       1  ZINC001461256440    0.0700
     29 H29        -1.3078   -0.0844   45.0723 H       1  ZINC001461256440    0.0700
     30 H30        -0.5290    2.6667   46.1410 H       1  ZINC001461256440    0.0700
     31 H31        -2.1745    1.9880   46.1226 H       1  ZINC001461256440    0.0700
     32 H32        -1.4347   -0.1632   49.5999 H       1  ZINC001461256440    0.1300
     33 H33        -0.6937    1.1420   50.5567 H       1  ZINC001461256440    0.1400
     34 H34        -6.7210    0.1736   51.1498 H       1  ZINC001461256440    0.0800
     35 H35        -6.9916    1.9075   50.8518 H       1  ZINC001461256440    0.0800
     36 H36        -6.6701    0.8097   49.4881 H       1  ZINC001461256440    0.0700
     37 H37        -4.8757    2.6947   52.3743 H       1  ZINC001461256440    0.1800
     38 H38        -1.2876    2.2923   52.5226 H       1  ZINC001461256440    0.4100
     39 H39        -0.2259    4.2515   53.1936 H       1  ZINC001461256440    0.1000
     40 H40        -0.9397    5.7963   52.6719 H       1  ZINC001461256440    0.1000
     41 H41        -1.1634    5.9561   54.9945 H       1  ZINC001461256440    0.0800
     42 H42        -2.7342    5.2499   54.5452 H       1  ZINC001461256440    0.0800
     43 H43        -2.2025    3.1718   55.4088 H       1  ZINC001461256440    0.0700
     44 H44        -0.4665    3.3537   55.0607 H       1  ZINC001461256440    0.0700
     45 H45        -0.1697    4.8455   56.9425 H       1  ZINC001461256440    0.1100
     46 H46        -1.9269    4.9521   57.2052 H       1  ZINC001461256440    0.1100
     47 H47         0.0468    0.5641   58.8265 H       1  ZINC001461256440    0.0600
     48 H48         1.5817    0.6195   59.7262 H       1  ZINC001461256440    0.0700
     49 H49         0.0593    1.0622   60.5352 H       1  ZINC001461256440    0.0800
     50 H50         1.7191    3.6332   57.5453 H       1  ZINC001461256440    0.0700
     51 H51         2.5509    2.1209   57.9801 H       1  ZINC001461256440    0.0800
     52 H52         1.0160    2.0654   57.0804 H       1  ZINC001461256440    0.0700
     53 H53         1.0462    3.2628   61.1878 H       1  ZINC001461256440    0.0800
     54 H54         2.5685    2.8201   60.3786 H       1  ZINC001461256440    0.0700
     55 H55         1.7367    4.3325   59.9439 H       1  ZINC001461256440    0.0600
@<TRIPOS>BOND
     1     1     2    1
     2     1    27    1
     3     1    28    1
     4     1    29    1
     5     2     3    1
     6     2    30    1
     7     2    31    1
     8     3     4    1
     9     4     5    2
    10     4     6    1
    11     6     7    1
    12     6    32    1
    13     6    33    1
    14     7    12    1
    15     7     8    1
    16     8     9    2
    17     9    10    1
    18     9    11    1
    19    10    34    1
    20    10    35    1
    21    10    36    1
    22    11    12    2
    23    11    37    1
    24    12    13    1
    25    13    14   am
    26    13    38    1
    27    14    15    2
    28    14    16    1
    29    16    17    1
    30    16    39    1
    31    16    40    1
    32    17    18    1
    33    17    41    1
    34    17    42    1
    35    18    19    1
    36    18    43    1
    37    18    44    1
    38    19    20    1
    39    19    45    1
    40    19    46    1
    41    20    21    2
    42    20    22    1
    43    22    23    1
    44    23    24    1
    45    23    25    1
    46    23    26    1
    47    24    47    1
    48    24    48    1
    49    24    49    1
    50    25    50    1
    51    25    51    1
    52    25    52    1
    53    26    53    1
    54    26    54    1
    55    26    55    1
@<TRIPOS>SUBSTRUCTURE
     1 ZINC001461256440        1 TEMP              0 ****  ****    0 ROOT


##########                                Name:    ZINC000512699033
##########                DOCK_Rotatable_Bonds:                   9
##########                         Heavy_Atoms:                  30
##########                    Molecular_Weight:              405.54
##########                DOCK_Rotatable_Bonds:                   9
##########                       Formal_Charge:           0.0199988
##########                     HBond_Acceptors:                   5
##########                        HBond_Donors:                   2
##########                         Heavy_Atoms:                  30
##########                          Grid_Score:          -36.186127
##########                     Grid_vdw_energy:          -36.233425
##########                      Grid_es_energy:            0.047298
##########           Internal_energy_repulsive:           14.044195

@<TRIPOS>MOLECULE
ZINC000512699033
 61 64 1 0 0
SMALL
USER_CHARGES


@<TRIPOS>ATOM
      1 O1          0.1522    3.3425   47.3112 O.2     1  ZINC000512699033   -0.5100
      2 C2         -0.4213    2.3204   46.9991 C.2     1  ZINC000512699033    0.5200
      3 C3         -1.1535    2.2385   45.6846 C.3     1  ZINC000512699033   -0.1500
      4 C4         -0.7986    0.9255   44.9838 C.3     1  ZINC000512699033    0.1300
      5 N5          0.6333    0.9086   44.6745 N.am    1  ZINC000512699033   -0.7300
      6 C6          1.0808    0.2435   43.5911 C.2     1  ZINC000512699033    0.5200
      7 O7          0.2984   -0.3425   42.8732 O.2     1  ZINC000512699033   -0.5300
      8 C8          2.5536    0.2276   43.2718 C.3     1  ZINC000512699033   -0.1100
      9 C9          2.7461    0.1134   41.7584 C.3     1  ZINC000512699033   -0.1100
     10 C10         4.2413    0.0973   41.4343 C.3     1  ZINC000512699033   -0.1200
     11 C11         4.8855    1.3919   41.9340 C.3     1  ZINC000512699033   -0.1200
     12 C12         4.6929    1.5060   43.4477 C.3     1  ZINC000512699033   -0.1200
     13 C13         3.1977    1.5222   43.7717 C.3     1  ZINC000512699033   -0.1000
     14 N14        -0.3990    1.2559   47.8255 N.am    1  ZINC000512699033   -0.6600
     15 C15         0.2810    1.3320   49.0462 C.ar    1  ZINC000512699033    0.1700
     16 C16         1.5183    0.7193   49.1927 C.ar    1  ZINC000512699033   -0.1400
     17 C17         2.1873    0.7967   50.3988 C.ar    1  ZINC000512699033   -0.1000
     18 C18         1.6256    1.4830   51.4596 C.ar    1  ZINC000512699033   -0.1400
     19 C19         0.3934    2.0944   51.3168 C.ar    1  ZINC000512699033   -0.0900
     20 C20        -0.2778    2.0255   50.1120 C.ar    1  ZINC000512699033   -0.1200
     21 C21        -1.6205    2.6920   49.9573 C.3     1  ZINC000512699033    0.0900
     22 N22        -2.3357    2.6560   51.2400 N.3     1  ZINC000512699033   -0.4700
     23 C23        -2.6873    4.0207   51.6893 C.3     1  ZINC000512699033    0.0500
     24 C24        -3.9990    3.7908   52.4744 C.3     1  ZINC000512699033   -0.0900
     25 C25        -4.5489    2.5249   51.8478 C.ar    1  ZINC000512699033   -0.1400
     26 C26        -5.8033    1.9541   51.8891 C.ar    1  ZINC000512699033   -0.0800
     27 C27        -6.0504    0.7731   51.2122 C.ar    1  ZINC000512699033   -0.1400
     28 C28        -5.0370    0.1660   50.4937 C.ar    1  ZINC000512699033   -0.0900
     29 C29        -3.7796    0.7318   50.4511 C.ar    1  ZINC000512699033   -0.1400
     30 C30        -3.5220    1.9197   51.1327 C.ar    1  ZINC000512699033    0.0900
     31 H31        -2.2280    2.2755   45.8642 H       1  ZINC000512699033    0.1100
     32 H32        -0.8616    3.0777   45.0532 H       1  ZINC000512699033    0.1000
     33 H33        -1.0388    0.0878   45.6385 H       1  ZINC000512699033    0.0800
     34 H34        -1.3709    0.8404   44.0602 H       1  ZINC000512699033    0.0800
     35 H35         1.2592    1.3763   45.2493 H       1  ZINC000512699033    0.4000
     36 H36         3.0226   -0.6249   43.7632 H       1  ZINC000512699033    0.1000
     37 H37         2.2872   -0.8089   41.4022 H       1  ZINC000512699033    0.0700
     38 H38         2.2771    0.9658   41.2671 H       1  ZINC000512699033    0.0700
     39 H39         4.7104   -0.7553   41.9255 H       1  ZINC000512699033    0.0600
     40 H40         4.3786    0.0159   40.3560 H       1  ZINC000512699033    0.0700
     41 H41         5.9507    1.3804   41.7032 H       1  ZINC000512699033    0.0600
     42 H42         4.4164    2.2443   41.4428 H       1  ZINC000512699033    0.0600
     43 H43         5.1620    0.6536   43.9389 H       1  ZINC000512699033    0.0600
     44 H44         5.1519    2.4284   43.8037 H       1  ZINC000512699033    0.0700
     45 H45         2.7286    2.3747   43.2804 H       1  ZINC000512699033    0.0700
     46 H46         3.0605    1.6035   44.8500 H       1  ZINC000512699033    0.0700
     47 H47        -0.8542    0.4371   47.5741 H       1  ZINC000512699033    0.4200
     48 H48         1.9572    0.1825   48.3646 H       1  ZINC000512699033    0.1500
     49 H49         3.1496    0.3203   50.5133 H       1  ZINC000512699033    0.1300
     50 H50         2.1503    1.5414   52.4017 H       1  ZINC000512699033    0.1200
     51 H51        -0.0427    2.6297   52.1473 H       1  ZINC000512699033    0.1200
     52 H52        -1.4786    3.7279   49.6493 H       1  ZINC000512699033    0.0600
     53 H53        -2.2030    2.1648   49.2017 H       1  ZINC000512699033    0.0900
     54 H54        -1.9124    4.4249   52.3407 H       1  ZINC000512699033    0.1000
     55 H55        -2.8575    4.6769   50.8357 H       1  ZINC000512699033    0.0600
     56 H56        -3.7932    3.6390   53.5340 H       1  ZINC000512699033    0.0900
     57 H57        -4.6869    4.6237   52.3291 H       1  ZINC000512699033    0.0800
     58 H58        -6.5940    2.4294   52.4507 H       1  ZINC000512699033    0.1200
     59 H59        -7.0329    0.3259   51.2453 H       1  ZINC000512699033    0.1300
     60 H60        -5.2306   -0.7551   49.9641 H       1  ZINC000512699033    0.1300
     61 H61        -2.9922    0.2524   49.8882 H       1  ZINC000512699033    0.1200
@<TRIPOS>BOND
     1     1     2    2
     2     2     3    1
     3     2    14   am
     4     3     4    1
     5     3    31    1
     6     3    32    1
     7     4     5    1
     8     4    33    1
     9     4    34    1
    10     5     6   am
    11     5    35    1
    12     6     7    2
    13     6     8    1
    14     8    13    1
    15     8     9    1
    16     8    36    1
    17     9    10    1
    18     9    37    1
    19     9    38    1
    20    10    11    1
    21    10    39    1
    22    10    40    1
    23    11    12    1
    24    11    41    1
    25    11    42    1
    26    12    13    1
    27    12    43    1
    28    12    44    1
    29    13    45    1
    30    13    46    1
    31    14    15    1
    32    14    47    1
    33    15    20   ar
    34    15    16   ar
    35    16    17   ar
    36    16    48    1
    37    17    18   ar
    38    17    49    1
    39    18    19   ar
    40    18    50    1
    41    19    20   ar
    42    19    51    1
    43    20    21    1
    44    21    22    1
    45    21    52    1
    46    21    53    1
    47    22    30    1
    48    22    23    1
    49    23    24    1
    50    23    54    1
    51    23    55    1
    52    24    25    1
    53    24    56    1
    54    24    57    1
    55    25    30   ar
    56    25    26   ar
    57    26    27   ar
    58    26    58    1
    59    27    28   ar
    60    27    59    1
    61    28    29   ar
    62    28    60    1
    63    29    30   ar
    64    29    61    1
@<TRIPOS>SUBSTRUCTURE
     1 ZINC000512699033        1 TEMP              0 ****  ****    0 ROOT


##########                                Name:    ZINC001289410668
##########                DOCK_Rotatable_Bonds:                  11
##########                         Heavy_Atoms:                  26
##########                    Molecular_Weight:             362.515
##########                DOCK_Rotatable_Bonds:                  11
##########                       Formal_Charge:          -0.0400008
##########                     HBond_Acceptors:                   6
##########                        HBond_Donors:                   1
##########                         Heavy_Atoms:                  26
##########                          Grid_Score:          -36.150784
##########                     Grid_vdw_energy:          -33.747055
##########                      Grid_es_energy:           -2.403727
##########           Internal_energy_repulsive:           14.784367

@<TRIPOS>MOLECULE
ZINC001289410668
 60 61 1 0 0
SMALL
USER_CHARGES


@<TRIPOS>ATOM
      1 C1         -6.8602    5.2715   51.4184 C.3     1  ZINC001289410668   -0.1500
      2 C2         -7.8484    4.3060   50.7609 C.3     1  ZINC001289410668   -0.1300
      3 C3         -7.0905    3.0946   50.2141 C.3     1  ZINC001289410668   -0.1200
      4 C4         -7.1188    1.9665   51.2474 C.3     1  ZINC001289410668   -0.1200
      5 C5         -6.6695    0.6605   50.5891 C.3     1  ZINC001289410668   -0.1100
      6 C6         -5.3135    0.2415   51.1603 C.3     1  ZINC001289410668   -0.1400
      7 C7         -4.2217    1.0478   50.5055 C.2     1  ZINC001289410668    0.5100
      8 O8         -4.2374    1.2286   49.3063 O.2     1  ZINC001289410668   -0.5300
      9 N9         -3.2276    1.5678   51.2524 N.am    1  ZINC001289410668   -0.7200
     10 C10        -2.1652    2.3502   50.6156 C.3     1  ZINC001289410668    0.1400
     11 H11        -2.5818    3.0699   49.9109 H       1  ZINC001289410668    0.1100
     12 C12        -1.1350    1.4253   49.9208 C.3     1  ZINC001289410668    0.0800
     13 N13         0.1109    2.2123   49.8791 N.am    1  ZINC001289410668   -0.6200
     14 C14         1.1197    2.0403   49.0021 C.2     1  ZINC001289410668    0.5100
     15 O15         2.1012    2.7504   49.0600 O.2     1  ZINC001289410668   -0.5100
     16 C16         1.0281    0.9657   47.9496 C.3     1  ZINC001289410668    0.0900
     17 N17         1.8246    1.3553   46.7834 N.pl3   1  ZINC001289410668   -0.4500
     18 C18         3.1881    1.2992   46.6756 C.2     1  ZINC001289410668   -0.0500
     19 C19         3.5003    1.7473   45.4446 C.2     1  ZINC001289410668   -0.0200
     20 N20         2.3587    2.0681   44.8179 N.2     1  ZINC001289410668   -0.4800
     21 C21         1.3505    1.8311   45.6118 C.2     1  ZINC001289410668    0.2300
     22 C22        -0.1016    2.0594   45.2799 C.3     1  ZINC001289410668   -0.0100
     23 C23        -0.2124    3.1071   44.1703 C.3     1  ZINC001289410668   -0.1400
     24 C24        -0.7290    0.7468   44.8064 C.3     1  ZINC001289410668   -0.1400
     25 C25         0.0703    3.2165   50.9523 C.3     1  ZINC001289410668    0.1100
     26 C26        -1.2832    3.0583   51.6776 C.3     1  ZINC001289410668   -0.1100
     27 H27        -1.1745    2.4351   52.5653 H       1  ZINC001289410668    0.0900
     28 C28        -1.8629    4.4254   52.0461 C.3     1  ZINC001289410668   -0.1400
     29 H29        -7.4000    6.1346   51.8080 H       1  ZINC001289410668    0.0500
     30 H30        -6.3466    4.7650   52.2356 H       1  ZINC001289410668    0.0500
     31 H31        -6.1299    5.6026   50.6801 H       1  ZINC001289410668    0.0500
     32 H32        -8.5787    3.9749   51.4993 H       1  ZINC001289410668    0.0600
     33 H33        -8.3620    4.8125   49.9437 H       1  ZINC001289410668    0.0600
     34 H34        -7.5640    2.7553   49.2928 H       1  ZINC001289410668    0.0600
     35 H35        -6.0570    3.3744   50.0099 H       1  ZINC001289410668    0.0600
     36 H36        -6.4452    2.2095   52.0691 H       1  ZINC001289410668    0.0600
     37 H37        -8.1324    1.8502   51.6308 H       1  ZINC001289410668    0.0600
     38 H38        -7.4048   -0.1189   50.7893 H       1  ZINC001289410668    0.0700
     39 H39        -6.5805    0.8080   49.5128 H       1  ZINC001289410668    0.0700
     40 H40        -5.3016    0.4195   52.2356 H       1  ZINC001289410668    0.1000
     41 H41        -5.1491   -0.8184   50.9657 H       1  ZINC001289410668    0.1000
     42 H42        -3.2157    1.4242   52.2116 H       1  ZINC001289410668    0.4000
     43 H43        -0.9894    0.5151   50.5026 H       1  ZINC001289410668    0.0800
     44 H44        -1.4641    1.1822   48.9105 H       1  ZINC001289410668    0.0800
     45 H45         1.4099    0.0280   48.3536 H       1  ZINC001289410668    0.1200
     46 H46        -0.0124    0.8363   47.6521 H       1  ZINC001289410668    0.1200
     47 H47         3.8804    0.9612   47.4325 H       1  ZINC001289410668    0.1700
     48 H48         4.4956    1.8333   45.0340 H       1  ZINC001289410668    0.1700
     49 H49        -0.6259    2.4135   46.1674 H       1  ZINC001289410668    0.0700
     50 H50         0.3119    2.7531   43.2827 H       1  ZINC001289410668    0.0700
     51 H51        -1.2627    3.2723   43.9302 H       1  ZINC001289410668    0.0600
     52 H52         0.2346    4.0422   44.5076 H       1  ZINC001289410668    0.0500
     53 H53        -0.2047    0.3928   43.9187 H       1  ZINC001289410668    0.0700
     54 H54        -0.6501    0.0004   45.5969 H       1  ZINC001289410668    0.0600
     55 H55        -1.7793    0.9119   44.5662 H       1  ZINC001289410668    0.0600
     56 H56         0.8884    3.0449   51.6517 H       1  ZINC001289410668    0.0800
     57 H57         0.1474    4.2171   50.5268 H       1  ZINC001289410668    0.0800
     58 H58        -1.9915    5.0211   51.1424 H       1  ZINC001289410668    0.0600
     59 H59        -2.8288    4.2911   52.5332 H       1  ZINC001289410668    0.0600
     60 H60        -1.1816    4.9379   52.7253 H       1  ZINC001289410668    0.0700
@<TRIPOS>BOND
     1     1     2    1
     2     1    29    1
     3     1    30    1
     4     1    31    1
     5     2     3    1
     6     2    32    1
     7     2    33    1
     8     3     4    1
     9     3    34    1
    10     3    35    1
    11     4     5    1
    12     4    36    1
    13     4    37    1
    14     5     6    1
    15     5    38    1
    16     5    39    1
    17     6     7    1
    18     6    40    1
    19     6    41    1
    20     7     8    2
    21     7     9   am
    22     9    10    1
    23     9    42    1
    24    10    11    1
    25    10    26    1
    26    10    12    1
    27    12    13    1
    28    12    43    1
    29    12    44    1
    30    13    14   am
    31    13    25    1
    32    14    15    2
    33    14    16    1
    34    16    17    1
    35    16    45    1
    36    16    46    1
    37    17    21    1
    38    17    18    1
    39    18    19    2
    40    18    47    1
    41    19    20    1
    42    19    48    1
    43    20    21    2
    44    21    22    1
    45    22    23    1
    46    22    24    1
    47    22    49    1
    48    23    50    1
    49    23    51    1
    50    23    52    1
    51    24    53    1
    52    24    54    1
    53    24    55    1
    54    25    26    1
    55    25    56    1
    56    25    57    1
    57    26    27    1
    58    26    28    1
    59    28    58    1
    60    28    59    1
    61    28    60    1
@<TRIPOS>SUBSTRUCTURE
     1 ZINC001289410668        1 TEMP              0 ****  ****    0 ROOT


##########                                Name:    ZINC001596273020
##########                DOCK_Rotatable_Bonds:                  11
##########                         Heavy_Atoms:                  25
##########                    Molecular_Weight:             355.478
##########                DOCK_Rotatable_Bonds:                  11
##########                       Formal_Charge:          -0.0499996
##########                     HBond_Acceptors:                   7
##########                        HBond_Donors:                   2
##########                         Heavy_Atoms:                  25
##########                          Grid_Score:          -36.140102
##########                     Grid_vdw_energy:          -34.676918
##########                      Grid_es_energy:           -1.463184
##########           Internal_energy_repulsive:           18.656208

@<TRIPOS>MOLECULE
ZINC001596273020
 58 59 1 0 0
SMALL
USER_CHARGES


@<TRIPOS>ATOM
      1 C1         -3.6517    1.0252   50.6450 C.3     1  ZINC001596273020   -0.1900
      2 C2         -5.0047    0.3149   50.5709 C.3     1  ZINC001596273020   -0.0200
      3 N3         -6.0644    1.2328   51.0097 N.4     1  ZINC001596273020   -0.3900
      4 H4         -5.7893    1.6756   51.8736 H       1  ZINC001596273020    0.4300
      5 C5         -6.2805    2.2588   49.9808 C.3     1  ZINC001596273020   -0.0100
      6 C6         -6.0406    3.6442   50.5838 C.3     1  ZINC001596273020   -0.1900
      7 C7         -7.3082    0.4801   51.2197 C.3     1  ZINC001596273020   -0.0100
      8 C8         -8.3303    1.3713   51.9284 C.3     1  ZINC001596273020    0.0300
      9 O9         -9.1937    0.5618   52.7293 O.3     1  ZINC001596273020   -0.3900
     10 C10       -10.5810    0.8727   52.5847 C.3     1  ZINC001596273020    0.0500
     11 C11       -11.1746    1.2052   53.9551 C.3     1  ZINC001596273020    0.1400
     12 N12       -10.7519    0.1952   54.9285 N.am    1  ZINC001596273020   -0.7500
     13 C13       -11.5348   -0.0887   55.9882 C.2     1  ZINC001596273020    0.7200
     14 O14       -12.5912    0.4946   56.1372 O.2     1  ZINC001596273020   -0.6000
     15 N15       -11.1467   -1.0190   56.8828 N.am    1  ZINC001596273020   -0.6300
     16 C16        -9.8995   -1.8229   56.8751 C.3     1  ZINC001596273020    0.1100
     17 C17        -9.4619   -1.8322   58.3682 C.3     1  ZINC001596273020   -0.0800
     18 H18        -8.9654   -2.7744   58.6003 H       1  ZINC001596273020    0.1200
     19 C19        -8.4951   -0.6820   58.5671 C.3     1  ZINC001596273020   -0.1000
     20 C20        -8.5336   -0.1141   59.9789 C.3     1  ZINC001596273020   -0.1200
     21 C21        -9.9645    0.3632   60.2606 C.3     1  ZINC001596273020   -0.1200
     22 C22       -10.8556   -0.8722   60.3401 C.3     1  ZINC001596273020   -0.0800
     23 C23       -10.7659   -1.7409   59.1298 C.3     1  ZINC001596273020   -0.1400
     24 C24       -11.0446   -3.1419   59.6101 C.2     1  ZINC001596273020    0.5000
     25 O25       -11.3400   -3.3390   60.7764 O.co2   1  ZINC001596273020   -0.6900
     26 O26       -10.9747   -4.0782   58.8323 O.co2   1  ZINC001596273020   -0.6900
     27 C27       -11.8670   -1.4652   58.1002 C.3     1  ZINC001596273020    0.1600
     28 H28        -3.6255    1.8342   49.9150 H       1  ZINC001596273020    0.0800
     29 H29        -3.5102    1.4340   51.6455 H       1  ZINC001596273020    0.0800
     30 H30        -2.8553    0.3135   50.4273 H       1  ZINC001596273020    0.1000
     31 H31        -5.1959    0.0036   49.5439 H       1  ZINC001596273020    0.1300
     32 H32        -4.9912   -0.5611   51.2195 H       1  ZINC001596273020    0.1300
     33 H33        -5.5878    2.0969   49.1550 H       1  ZINC001596273020    0.1300
     34 H34        -7.3048    2.1948   49.6135 H       1  ZINC001596273020    0.1300
     35 H35        -6.8032    3.8507   51.3348 H       1  ZINC001596273020    0.0800
     36 H36        -5.0554    3.6722   51.0491 H       1  ZINC001596273020    0.0800
     37 H37        -6.0924    4.3968   49.7970 H       1  ZINC001596273020    0.1000
     38 H38        -7.7084    0.1634   50.2565 H       1  ZINC001596273020    0.1400
     39 H39        -7.1030   -0.3967   51.8340 H       1  ZINC001596273020    0.1400
     40 H40        -7.8092    2.0865   52.5649 H       1  ZINC001596273020    0.1000
     41 H41        -8.9208    1.9083   51.1862 H       1  ZINC001596273020    0.0700
     42 H42       -10.6939    1.7307   51.9220 H       1  ZINC001596273020    0.0700
     43 H43       -11.1033    0.0150   52.1609 H       1  ZINC001596273020    0.0700
     44 H44       -10.8241    2.1866   54.2744 H       1  ZINC001596273020    0.0900
     45 H45       -12.2625    1.2120   53.8878 H       1  ZINC001596273020    0.0700
     46 H46        -9.9086   -0.2694   54.8103 H       1  ZINC001596273020    0.3900
     47 H47       -10.0987   -2.8366   56.5275 H       1  ZINC001596273020    0.0700
     48 H48        -9.1398   -1.3463   56.2557 H       1  ZINC001596273020    0.0600
     49 H49        -7.4845   -1.0321   58.3566 H       1  ZINC001596273020    0.0500
     50 H50        -8.7435    0.1115   57.8623 H       1  ZINC001596273020    0.0400
     51 H51        -8.2558   -0.8877   60.6948 H       1  ZINC001596273020    0.0700
     52 H52        -7.8432    0.7257   60.0570 H       1  ZINC001596273020    0.0500
     53 H53        -9.9947    0.9025   61.2074 H       1  ZINC001596273020    0.0600
     54 H54       -10.3035    1.0123   59.4533 H       1  ZINC001596273020    0.0500
     55 H55       -10.5668   -1.4563   61.2140 H       1  ZINC001596273020    0.0600
     56 H56       -11.8897   -0.5504   60.4638 H       1  ZINC001596273020    0.0600
     57 H57       -12.5353   -0.6826   58.4591 H       1  ZINC001596273020    0.0700
     58 H58       -12.4265   -2.3766   57.8891 H       1  ZINC001596273020    0.0700
@<TRIPOS>BOND
     1     1     2    1
     2     1    28    1
     3     1    29    1
     4     1    30    1
     5     2     3    1
     6     2    31    1
     7     2    32    1
     8     3     4    1
     9     3     5    1
    10     3     7    1
    11     5     6    1
    12     5    33    1
    13     5    34    1
    14     6    35    1
    15     6    36    1
    16     6    37    1
    17     7     8    1
    18     7    38    1
    19     7    39    1
    20     8     9    1
    21     8    40    1
    22     8    41    1
    23     9    10    1
    24    10    11    1
    25    10    42    1
    26    10    43    1
    27    11    12    1
    28    11    44    1
    29    11    45    1
    30    12    13   am
    31    12    46    1
    32    13    14    2
    33    13    15   am
    34    15    27    1
    35    15    16    1
    36    16    17    1
    37    16    47    1
    38    16    48    1
    39    17    18    1
    40    17    23    1
    41    17    19    1
    42    19    20    1
    43    19    49    1
    44    19    50    1
    45    20    21    1
    46    20    51    1
    47    20    52    1
    48    21    22    1
    49    21    53    1
    50    21    54    1
    51    22    23    1
    52    22    55    1
    53    22    56    1
    54    23    24    1
    55    23    27    1
    56    24    25   ar
    57    24    26   ar
    58    27    57    1
    59    27    58    1
@<TRIPOS>SUBSTRUCTURE
     1 ZINC001596273020        1 TEMP              0 ****  ****    0 ROOT


##########                                Name:    ZINC000623695407
##########                DOCK_Rotatable_Bonds:                  10
##########                         Heavy_Atoms:                  27
##########                    Molecular_Weight:             368.479
##########                DOCK_Rotatable_Bonds:                  10
##########                       Formal_Charge:           0.0299989
##########                     HBond_Acceptors:                   6
##########                        HBond_Donors:                   2
##########                         Heavy_Atoms:                  27
##########                          Grid_Score:          -36.099266
##########                     Grid_vdw_energy:          -36.410789
##########                      Grid_es_energy:            0.311522
##########           Internal_energy_repulsive:           12.343979

@<TRIPOS>MOLECULE
ZINC000623695407
 55 57 1 0 0
SMALL
USER_CHARGES


@<TRIPOS>ATOM
      1 C1         -5.2666    0.3312   50.4296 C.3     1  ZINC000623695407    0.0300
      2 O2         -4.4211    1.2971   49.8016 O.3     1  ZINC000623695407   -0.3200
      3 C3         -3.6622    2.0757   50.6170 C.ar    1  ZINC000623695407    0.1300
      4 C4         -4.2672    3.0058   51.4498 C.ar    1  ZINC000623695407   -0.2100
      5 C5         -3.4936    3.7958   52.2782 C.ar    1  ZINC000623695407   -0.0600
      6 C6         -2.1176    3.6602   52.2773 C.ar    1  ZINC000623695407   -0.1100
      7 C7         -1.2761    4.5236   53.1814 C.3     1  ZINC000623695407    0.0600
      8 N8         -0.5195    3.6706   54.1078 N.3     1  ZINC000623695407   -0.4600
      9 C9          0.8668    4.1513   54.2562 C.3     1  ZINC000623695407    0.0000
     10 C10         0.7484    3.8590   55.7585 C.3     1  ZINC000623695407   -0.1300
     11 C11        -0.7503    4.0755   55.5071 C.3     1  ZINC000623695407    0.0100
     12 H12        -1.0628    5.1144   55.6127 H       1  ZINC000623695407    0.0900
     13 C13        -1.6448    3.1069   56.2835 C.3     1  ZINC000623695407    0.1600
     14 N14        -1.2615    3.1148   57.6974 N.am    1  ZINC000623695407   -0.7400
     15 C15        -0.6282    2.0510   58.2300 C.2     1  ZINC000623695407    0.7100
     16 O16        -0.3763    1.0840   57.5372 O.2     1  ZINC000623695407   -0.5900
     17 N17        -0.2742    2.0590   59.5304 N.am    1  ZINC000623695407   -0.7400
     18 C18         0.4127    0.9018   60.1096 C.3     1  ZINC000623695407    0.1700
     19 H19         0.1316    0.0015   59.5633 H       1  ZINC000623695407    0.0900
     20 C20         1.9259    1.1058   60.0127 C.3     1  ZINC000623695407   -0.1600
     21 C21         0.0111    0.7532   61.5785 C.3     1  ZINC000623695407   -0.0900
     22 C22         0.4255   -0.6071   62.0774 C.ar    1  ZINC000623695407   -0.0300
     23 C23         0.0936   -1.7533   61.3716 C.ar    1  ZINC000623695407   -0.1700
     24 C24         0.4909   -2.9837   61.8600 C.ar    1  ZINC000623695407    0.1000
     25 N25         1.1766   -3.0742   62.9826 N.ar    1  ZINC000623695407   -0.4900
     26 C26         1.5097   -2.0058   63.6800 C.ar    1  ZINC000623695407    0.1000
     27 C27         1.1526   -0.7417   63.2503 C.ar    1  ZINC000623695407   -0.1700
     28 C28        -1.5124    2.7336   51.4485 C.ar    1  ZINC000623695407   -0.0700
     29 C29        -2.2818    1.9377   50.6221 C.ar    1  ZINC000623695407   -0.1500
     30 H30        -5.8158   -0.2213   49.6671 H       1  ZINC000623695407    0.1000
     31 H31        -4.6579   -0.3607   51.0118 H       1  ZINC000623695407    0.0600
     32 H32        -5.9710    0.8387   51.0887 H       1  ZINC000623695407    0.0600
     33 H33        -5.3418    3.1125   51.4504 H       1  ZINC000623695407    0.1300
     34 H34        -3.9640    4.5200   52.9267 H       1  ZINC000623695407    0.1200
     35 H35        -0.5826    5.1115   52.5802 H       1  ZINC000623695407    0.0600
     36 H36        -1.9223    5.1929   53.7494 H       1  ZINC000623695407    0.0700
     37 H37         1.6003    3.5249   53.7484 H       1  ZINC000623695407    0.0900
     38 H38         0.9860    5.2104   54.0279 H       1  ZINC000623695407    0.0700
     39 H39         1.0116    2.8384   56.0367 H       1  ZINC000623695407    0.1000
     40 H40         1.2074    4.6135   56.3975 H       1  ZINC000623695407    0.0800
     41 H41        -2.6854    3.4168   56.1873 H       1  ZINC000623695407    0.0700
     42 H42        -1.5266    2.1009   55.8806 H       1  ZINC000623695407    0.0700
     43 H43        -1.4635    3.8858   58.2503 H       1  ZINC000623695407    0.3900
     44 H44        -0.4741    2.8309   60.0827 H       1  ZINC000623695407    0.3900
     45 H45         2.4368    0.2448   60.4437 H       1  ZINC000623695407    0.0700
     46 H46         2.2119    1.2116   58.9662 H       1  ZINC000623695407    0.0700
     47 H47         2.2069    2.0061   60.5590 H       1  ZINC000623695407    0.0600
     48 H48         0.5059    1.5235   62.1701 H       1  ZINC000623695407    0.1000
     49 H49        -1.0695    0.8610   61.6725 H       1  ZINC000623695407    0.0800
     50 H50        -0.4685   -1.6857   60.4519 H       1  ZINC000623695407    0.1300
     51 H51         0.2364   -3.8814   61.3161 H       1  ZINC000623695407    0.1500
     52 H52         2.0717   -2.1195   64.5952 H       1  ZINC000623695407    0.1600
     53 H53         1.4287    0.1298   63.8255 H       1  ZINC000623695407    0.1400
     54 H54        -0.4374    2.6295   51.4498 H       1  ZINC000623695407    0.1200
     55 H55        -1.8086    1.2141   49.9750 H       1  ZINC000623695407    0.1300
@<TRIPOS>BOND
     1     1     2    1
     2     1    30    1
     3     1    31    1
     4     1    32    1
     5     2     3    1
     6     3    29   ar
     7     3     4   ar
     8     4     5   ar
     9     4    33    1
    10     5     6   ar
    11     5    34    1
    12     6     7    1
    13     6    28   ar
    14     7     8    1
    15     7    35    1
    16     7    36    1
    17     8    11    1
    18     8     9    1
    19     9    10    1
    20     9    37    1
    21     9    38    1
    22    10    11    1
    23    10    39    1
    24    10    40    1
    25    11    12    1
    26    11    13    1
    27    13    14    1
    28    13    41    1
    29    13    42    1
    30    14    15   am
    31    14    43    1
    32    15    16    2
    33    15    17   am
    34    17    18    1
    35    17    44    1
    36    18    19    1
    37    18    20    1
    38    18    21    1
    39    20    45    1
    40    20    46    1
    41    20    47    1
    42    21    22    1
    43    21    48    1
    44    21    49    1
    45    22    27   ar
    46    22    23   ar
    47    23    24   ar
    48    23    50    1
    49    24    25   ar
    50    24    51    1
    51    25    26   ar
    52    26    27   ar
    53    26    52    1
    54    27    53    1
    55    28    29   ar
    56    28    54    1
    57    29    55    1
@<TRIPOS>SUBSTRUCTURE
     1 ZINC000623695407        1 TEMP              0 ****  ****    0 ROOT


##########                                Name:    ZINC001574157642
##########                DOCK_Rotatable_Bonds:                   9
##########                         Heavy_Atoms:                  28
##########                    Molecular_Weight:             387.445
##########                DOCK_Rotatable_Bonds:                   9
##########                       Formal_Charge:          -0.0400004
##########                     HBond_Acceptors:                  11
##########                        HBond_Donors:                   4
##########                         Heavy_Atoms:                  28
##########                          Grid_Score:          -36.094738
##########                     Grid_vdw_energy:          -35.131271
##########                      Grid_es_energy:           -0.963466
##########           Internal_energy_repulsive:           10.256913

@<TRIPOS>MOLECULE
ZINC001574157642
 53 55 1 0 0
SMALL
USER_CHARGES


@<TRIPOS>ATOM
      1 C1          0.4386    3.8505   52.5560 C.3     1  ZINC001574157642   -0.1400
      2 C2         -1.0068    3.5246   52.1745 C.3     1  ZINC001574157642   -0.0900
      3 C3         -1.9408    4.5840   52.7627 C.3     1  ZINC001574157642   -0.1500
      4 C4         -1.1423    3.5147   50.6505 C.3     1  ZINC001574157642   -0.1300
      5 C5         -1.9077    2.2636   50.2146 C.3     1  ZINC001574157642    0.1300
      6 H6         -1.5392    1.4006   50.7691 H       1  ZINC001574157642    0.1100
      7 C7         -1.6989    2.0343   48.7163 C.3     1  ZINC001574157642    0.1100
      8 N8         -0.5950    1.0923   48.5157 N.pl3   1  ZINC001574157642   -0.7100
      9 C9          0.0935    1.0757   47.3091 C.ar    1  ZINC001574157642    0.3700
     10 C10         1.1311    0.1662   47.1115 C.ar    1  ZINC001574157642    0.0000
     11 N11         1.7850    0.1501   45.9671 N.ar    1  ZINC001574157642   -0.3700
     12 C12         1.4545    1.0017   45.0003 C.ar    1  ZINC001574157642    0.0800
     13 C13         2.1901    0.9835   43.7117 C.2     1  ZINC001574157642    0.2300
     14 N14         1.9567    1.7450   42.6609 N.2     1  ZINC001574157642   -0.2700
     15 N15         2.8074    1.4267   41.7467 N.pl3   1  ZINC001574157642   -0.2300
     16 N16         3.5719    0.4879   42.1844 N.2     1  ZINC001574157642   -0.0400
     17 N17         3.2250    0.1937   43.3913 N.2     1  ZINC001574157642   -0.2600
     18 C18         0.4172    1.9102   45.1977 C.ar    1  ZINC001574157642    0.1600
     19 N19        -0.2406    1.9222   46.3427 N.ar    1  ZINC001574157642   -0.5000
     20 N20        -3.3357    2.4454   50.4864 N.am    1  ZINC001574157642   -0.7300
     21 C21        -4.1780    1.3973   50.3938 C.2     1  ZINC001574157642    0.5200
     22 O22        -3.7540    0.3041   50.0840 O.2     1  ZINC001574157642   -0.5100
     23 C23        -5.6467    1.5839   50.6752 C.3     1  ZINC001574157642   -0.1300
     24 H24        -6.1391    1.9923   49.7927 H       1  ZINC001574157642    0.1100
     25 C25        -5.8263    2.5456   51.8559 C.3     1  ZINC001574157642   -0.1000
     26 C26        -7.3175    2.8590   52.0022 C.3     1  ZINC001574157642   -0.1400
     27 C27        -8.1115    1.5845   51.9855 C.2     1  ZINC001574157642    0.5200
     28 O28        -9.2483    1.6108   52.4075 O.2     1  ZINC001574157642   -0.5500
     29 N29        -7.6338    0.4253   51.5310 N.am    1  ZINC001574157642   -0.7200
     30 C30        -6.2751    0.2372   51.0361 C.3     1  ZINC001574157642    0.1200
     31 H31         0.7064    4.8305   52.1610 H       1  ZINC001574157642    0.0400
     32 H32         0.5350    3.8575   53.6416 H       1  ZINC001574157642    0.0500
     33 H33         1.1040    3.0957   52.1369 H       1  ZINC001574157642    0.0700
     34 H34        -1.2746    2.5445   52.5693 H       1  ZINC001574157642    0.0700
     35 H35        -1.6730    5.5640   52.3677 H       1  ZINC001574157642    0.0500
     36 H36        -2.9706    4.3518   52.4909 H       1  ZINC001574157642    0.0500
     37 H37        -1.8443    4.5910   53.8483 H       1  ZINC001574157642    0.0500
     38 H38        -1.6850    4.4034   50.3282 H       1  ZINC001574157642    0.0700
     39 H39        -0.1509    3.5103   50.1976 H       1  ZINC001574157642    0.0800
     40 H40        -2.6102    1.6241   48.2811 H       1  ZINC001574157642    0.0800
     41 H41        -1.4602    2.9820   48.2335 H       1  ZINC001574157642    0.0900
     42 H42        -0.3446    0.4802   49.2254 H       1  ZINC001574157642    0.4100
     43 H43         1.3994   -0.5254   47.8965 H       1  ZINC001574157642    0.1700
     44 H44         2.8625    1.8307   40.8665 H       1  ZINC001574157642    0.4800
     45 H45         0.1486    2.6022   44.4132 H       1  ZINC001574157642    0.1800
     46 H46        -3.6750    3.3200   50.7330 H       1  ZINC001574157642    0.4000
     47 H47        -5.4583    2.0780   52.7692 H       1  ZINC001574157642    0.0800
     48 H48        -5.2746    3.4664   51.6664 H       1  ZINC001574157642    0.0900
     49 H49        -7.4874    3.3791   52.9449 H       1  ZINC001574157642    0.1100
     50 H50        -7.6364    3.4951   51.1765 H       1  ZINC001574157642    0.1000
     51 H51        -8.2282   -0.3411   51.5271 H       1  ZINC001574157642    0.4000
     52 H52        -6.2984   -0.4026   50.1539 H       1  ZINC001574157642    0.0800
     53 H53        -5.6733   -0.2413   51.8087 H       1  ZINC001574157642    0.0700
@<TRIPOS>BOND
     1     1     2    1
     2     1    31    1
     3     1    32    1
     4     1    33    1
     5     2     3    1
     6     2     4    1
     7     2    34    1
     8     3    35    1
     9     3    36    1
    10     3    37    1
    11     4     5    1
    12     4    38    1
    13     4    39    1
    14     5     6    1
    15     5     7    1
    16     5    20    1
    17     7     8    1
    18     7    40    1
    19     7    41    1
    20     8     9    1
    21     8    42    1
    22     9    19   ar
    23     9    10   ar
    24    10    11   ar
    25    10    43    1
    26    11    12   ar
    27    12    13    1
    28    12    18   ar
    29    13    17    1
    30    13    14    2
    31    14    15    1
    32    15    16    1
    33    15    44    1
    34    16    17    2
    35    18    19   ar
    36    18    45    1
    37    20    21   am
    38    20    46    1
    39    21    22    2
    40    21    23    1
    41    23    24    1
    42    23    30    1
    43    23    25    1
    44    25    26    1
    45    25    47    1
    46    25    48    1
    47    26    27    1
    48    26    49    1
    49    26    50    1
    50    27    28    2
    51    27    29   am
    52    29    30    1
    53    29    51    1
    54    30    52    1
    55    30    53    1
@<TRIPOS>SUBSTRUCTURE
     1 ZINC001574157642        1 TEMP              0 ****  ****    0 ROOT


##########                                Name:    ZINC000465642058
##########                DOCK_Rotatable_Bonds:                  10
##########                         Heavy_Atoms:                  31
##########                    Molecular_Weight:             420.511
##########                DOCK_Rotatable_Bonds:                  10
##########                       Formal_Charge:          1.2666e-07
##########                     HBond_Acceptors:                   7
##########                        HBond_Donors:                   2
##########                         Heavy_Atoms:                  31
##########                          Grid_Score:          -36.074303
##########                     Grid_vdw_energy:          -35.248795
##########                      Grid_es_energy:           -0.825508
##########           Internal_energy_repulsive:           15.608923

@<TRIPOS>MOLECULE
ZINC000465642058
 59 62 1 0 0
SMALL
USER_CHARGES


@<TRIPOS>ATOM
      1 C1          0.8995    4.8733   53.4482 C.3     1  ZINC000465642058   -0.1500
      2 C2          0.0825    3.6476   53.0343 C.3     1  ZINC000465642058    0.0500
      3 O3         -0.6130    3.9274   51.8178 O.3     1  ZINC000465642058   -0.3000
      4 C4         -1.5447    3.0217   51.4169 C.ar    1  ZINC000465642058    0.1200
      5 C5         -2.8404    3.0894   51.9094 C.ar    1  ZINC000465642058   -0.1600
      6 C6         -3.7806    2.1702   51.4991 C.ar    1  ZINC000465642058   -0.1300
      7 C7         -3.4523    1.1738   50.5894 C.ar    1  ZINC000465642058    0.0700
      8 C8         -2.1492    1.1080   50.1023 C.ar    1  ZINC000465642058   -0.0700
      9 C9         -1.2066    2.0287   50.5092 C.ar    1  ZINC000465642058   -0.1100
     10 C10         0.2002    1.9482   49.9750 C.3     1  ZINC000465642058    0.1900
     11 N11         0.1709    1.4616   48.5935 N.am    1  ZINC000465642058   -0.7300
     12 C12        -0.2981    2.2543   47.6096 C.2     1  ZINC000465642058    0.7100
     13 O13        -0.6983    3.3728   47.8689 O.2     1  ZINC000465642058   -0.5900
     14 N14        -0.3236    1.8072   46.3385 N.am    1  ZINC000465642058   -0.6200
     15 C15        -0.8352    2.6683   45.2693 C.3     1  ZINC000465642058    0.1900
     16 C16         0.2724    3.5591   44.7685 C.2     1  ZINC000465642058    0.0500
     17 N17         0.8679    4.5016   45.4532 N.2     1  ZINC000465642058   -0.2700
     18 N18         1.8365    5.0936   44.6324 N.pl3   1  ZINC000465642058   -0.4700
     19 C19         1.8004    4.4739   43.4342 C.2     1  ZINC000465642058    0.0600
     20 C20         0.8456    3.5169   43.4933 C.2     1  ZINC000465642058   -0.2600
     21 C21         0.1602    0.4602   46.0258 C.3     1  ZINC000465642058    0.1700
     22 C22         1.5736    0.5413   45.5095 C.ar    1  ZINC000465642058   -0.1100
     23 C23         1.8323    0.3328   44.1676 C.ar    1  ZINC000465642058   -0.0900
     24 C24         3.1288    0.4073   43.6941 C.ar    1  ZINC000465642058   -0.1200
     25 C25         4.1667    0.6905   44.5621 C.ar    1  ZINC000465642058   -0.1200
     26 C26         3.9078    0.8999   45.9038 C.ar    1  ZINC000465642058   -0.1300
     27 C27         2.6108    0.8297   46.3767 C.ar    1  ZINC000465642058   -0.1100
     28 O28        -4.5306    0.3910   50.3053 O.3     1  ZINC000465642058   -0.3000
     29 C29        -5.5155    0.5487   51.3407 C.3     1  ZINC000465642058    0.0800
     30 H30        -5.3634   -0.1841   52.1332 H       1  ZINC000465642058    0.0900
     31 C31        -6.9290    0.4368   50.7658 C.3     1  ZINC000465642058   -0.1500
     32 C32        -5.2417    1.9805   51.8583 C.3     1  ZINC000465642058   -0.1100
     33 H33         0.2314    5.7214   53.5984 H       1  ZINC000465642058    0.0700
     34 H34         1.4300    4.6598   54.3761 H       1  ZINC000465642058    0.0800
     35 H35         1.6190    5.1118   52.6649 H       1  ZINC000465642058    0.0700
     36 H36         0.7506    2.7995   52.8840 H       1  ZINC000465642058    0.0600
     37 H37        -0.6370    3.4091   53.8176 H       1  ZINC000465642058    0.0600
     38 H38        -3.1112    3.8618   52.6140 H       1  ZINC000465642058    0.1300
     39 H39        -1.8767    0.3348   49.3992 H       1  ZINC000465642058    0.1400
     40 H40         0.6564    2.9377   50.0021 H       1  ZINC000465642058    0.0700
     41 H41         0.7834    1.2623   50.5895 H       1  ZINC000465642058    0.0800
     42 H42         0.4891    0.5688   48.3869 H       1  ZINC000465642058    0.4000
     43 H43        -1.2031    2.0507   44.4501 H       1  ZINC000465642058    0.1000
     44 H44        -1.6488    3.2824   45.6553 H       1  ZINC000465642058    0.0900
     45 H45         2.4284    5.8206   44.8814 H       1  ZINC000465642058    0.4400
     46 H46         2.4249    4.6987   42.5820 H       1  ZINC000465642058    0.1800
     47 H47         0.5703    2.8438   42.6948 H       1  ZINC000465642058    0.1500
     48 H48         0.1372   -0.1524   46.9270 H       1  ZINC000465642058    0.0900
     49 H49        -0.4793    0.0119   45.2653 H       1  ZINC000465642058    0.0900
     50 H50         1.0215    0.1115   43.4894 H       1  ZINC000465642058    0.1300
     51 H51         3.3311    0.2436   42.6458 H       1  ZINC000465642058    0.1200
     52 H52         5.1797    0.7480   44.1922 H       1  ZINC000465642058    0.1200
     53 H53         4.7187    1.1209   46.5822 H       1  ZINC000465642058    0.1200
     54 H54         2.4086    0.9933   47.4248 H       1  ZINC000465642058    0.1200
     55 H55        -7.0657   -0.5516   50.3273 H       1  ZINC000465642058    0.0700
     56 H56        -7.6580    0.5849   51.5625 H       1  ZINC000465642058    0.0800
     57 H57        -7.0702    1.1976   49.9981 H       1  ZINC000465642058    0.0700
     58 H58        -5.3885    2.0396   52.9368 H       1  ZINC000465642058    0.0900
     59 H59        -5.8675    2.7079   51.3413 H       1  ZINC000465642058    0.1000
@<TRIPOS>BOND
     1     1     2    1
     2     1    33    1
     3     1    34    1
     4     1    35    1
     5     2     3    1
     6     2    36    1
     7     2    37    1
     8     3     4    1
     9     4     9   ar
    10     4     5   ar
    11     5     6   ar
    12     5    38    1
    13     6    32    1
    14     6     7   ar
    15     7     8   ar
    16     7    28    1
    17     8     9   ar
    18     8    39    1
    19     9    10    1
    20    10    11    1
    21    10    40    1
    22    10    41    1
    23    11    12   am
    24    11    42    1
    25    12    13    2
    26    12    14   am
    27    14    15    1
    28    14    21    1
    29    15    16    1
    30    15    43    1
    31    15    44    1
    32    16    20    1
    33    16    17    2
    34    17    18    1
    35    18    19    1
    36    18    45    1
    37    19    20    2
    38    19    46    1
    39    20    47    1
    40    21    22    1
    41    21    48    1
    42    21    49    1
    43    22    27   ar
    44    22    23   ar
    45    23    24   ar
    46    23    50    1
    47    24    25   ar
    48    24    51    1
    49    25    26   ar
    50    25    52    1
    51    26    27   ar
    52    26    53    1
    53    27    54    1
    54    28    29    1
    55    29    30    1
    56    29    31    1
    57    29    32    1
    58    31    55    1
    59    31    56    1
    60    31    57    1
    61    32    58    1
    62    32    59    1
@<TRIPOS>SUBSTRUCTURE
     1 ZINC000465642058        1 TEMP              0 ****  ****    0 ROOT


##########                                Name:    ZINC000031496632
##########                DOCK_Rotatable_Bonds:                   8
##########                         Heavy_Atoms:                  30
##########                    Molecular_Weight:             423.539
##########                DOCK_Rotatable_Bonds:                   8
##########                       Formal_Charge:          -0.0100009
##########                     HBond_Acceptors:                   8
##########                        HBond_Donors:                   1
##########                         Heavy_Atoms:                  30
##########                          Grid_Score:          -36.040092
##########                     Grid_vdw_energy:          -35.668034
##########                      Grid_es_energy:           -0.372058
##########           Internal_energy_repulsive:           11.038123

@<TRIPOS>MOLECULE
ZINC000031496632
 55 58 1 0 0
SMALL
USER_CHARGES


@<TRIPOS>ATOM
      1 C1         -8.9817    3.4884   52.4366 C.3     1  ZINC000031496632   -0.1600
      2 C2         -7.5199    3.3109   52.8519 C.3     1  ZINC000031496632    0.1600
      3 C3         -7.4534    2.9193   54.3294 C.3     1  ZINC000031496632   -0.1600
      4 N4         -6.9059    2.2577   52.0395 N.pl3   1  ZINC000031496632   -0.3900
      5 N5         -7.5875    1.1887   51.4497 N.2     1  ZINC000031496632   -0.2300
      6 C6         -6.7533    0.4323   50.7955 C.2     1  ZINC000031496632    0.0800
      7 C7         -5.4222    1.0109   50.9417 C.ar    1  ZINC000031496632   -0.2100
      8 C8         -4.1494    0.6584   50.4786 C.ar    1  ZINC000031496632    0.0100
      9 C9         -3.0817    1.4702   50.8283 C.ar    1  ZINC000031496632    0.0500
     10 N10        -1.7866    1.1630   50.3909 N.am    1  ZINC000031496632   -0.6600
     11 C11        -1.0968    2.0527   49.6501 C.2     1  ZINC000031496632    0.5500
     12 O12        -1.5985    3.1224   49.3612 O.2     1  ZINC000031496632   -0.4900
     13 C13         0.2655    1.7297   49.1900 C.ar    1  ZINC000031496632   -0.1300
     14 C14         1.2558    1.3843   50.1130 C.ar    1  ZINC000031496632   -0.0600
     15 C15         2.5275    1.0835   49.6765 C.ar    1  ZINC000031496632   -0.1400
     16 C16         2.8317    1.1215   48.3247 C.ar    1  ZINC000031496632   -0.0600
     17 C17         1.8656    1.4610   47.4003 C.ar    1  ZINC000031496632   -0.1500
     18 C18         0.5751    1.7614   47.8202 C.ar    1  ZINC000031496632   -0.0600
     19 S19        -0.6615    2.1948   46.6422 S.3     1  ZINC000031496632    0.0900
     20 C20        -0.1862    1.2334   45.1792 C.3     1  ZINC000031496632   -0.2000
     21 C21         0.5840    2.1132   44.2285 C.2     1  ZINC000031496632    0.5500
     22 O22         0.5216    3.3198   44.3333 O.2     1  ZINC000031496632   -0.5200
     23 N23         1.3420    1.5590   43.2616 N.am    1  ZINC000031496632   -0.6200
     24 C24         1.5004    0.1180   43.0173 C.3     1  ZINC000031496632    0.1000
     25 C25         2.4762   -0.0414   41.8325 C.3     1  ZINC000031496632   -0.1300
     26 C26         3.2531    1.3017   41.8391 C.3     1  ZINC000031496632   -0.1300
     27 C27         2.1445    2.2977   42.2697 C.3     1  ZINC000031496632    0.1000
     28 C28        -3.3091    2.5953   51.6191 C.ar    1  ZINC000031496632    0.1600
     29 N29        -4.5147    2.9049   52.0420 N.ar    1  ZINC000031496632   -0.4900
     30 C30        -5.5738    2.1674   51.7324 C.ar    1  ZINC000031496632    0.3000
     31 H31        -9.4386    4.2720   53.0411 H       1  ZINC000031496632    0.0800
     32 H32        -9.0291    3.7674   51.3840 H       1  ZINC000031496632    0.0600
     33 H33        -9.5190    2.5523   52.5889 H       1  ZINC000031496632    0.0700
     34 H34        -6.9827    4.2470   52.6996 H       1  ZINC000031496632    0.1100
     35 H35        -7.9104    3.7029   54.9339 H       1  ZINC000031496632    0.0800
     36 H36        -7.9908    1.9832   54.4818 H       1  ZINC000031496632    0.0700
     37 H37        -6.4121    2.7928   54.6253 H       1  ZINC000031496632    0.0600
     38 H38        -7.0021   -0.4626   50.2443 H       1  ZINC000031496632    0.2000
     39 H39        -4.0034   -0.2200   49.8674 H       1  ZINC000031496632    0.1500
     40 H40        -1.3865    0.3100   50.6213 H       1  ZINC000031496632    0.4100
     41 H41         1.0249    1.3537   51.1676 H       1  ZINC000031496632    0.1300
     42 H42         3.2917    0.8166   50.3916 H       1  ZINC000031496632    0.1300
     43 H43         3.8318    0.8842   47.9931 H       1  ZINC000031496632    0.1300
     44 H44         2.1111    1.4890   46.3489 H       1  ZINC000031496632    0.1300
     45 H45         0.4382    0.3935   45.4836 H       1  ZINC000031496632    0.1100
     46 H46        -1.0820    0.8595   44.6835 H       1  ZINC000031496632    0.1100
     47 H47         1.9116   -0.3652   43.9038 H       1  ZINC000031496632    0.0700
     48 H48         0.5362   -0.3236   42.7656 H       1  ZINC000031496632    0.0700
     49 H49         3.1530   -0.8792   42.0002 H       1  ZINC000031496632    0.0900
     50 H50         1.9302   -0.1665   40.8975 H       1  ZINC000031496632    0.0800
     51 H51         4.0661    1.2792   42.5647 H       1  ZINC000031496632    0.0800
     52 H52         3.6264    1.5419   40.8436 H       1  ZINC000031496632    0.0900
     53 H53         1.5328    2.5785   41.4124 H       1  ZINC000031496632    0.0700
     54 H54         2.5865    3.1826   42.7276 H       1  ZINC000031496632    0.0800
     55 H55        -2.4761    3.2267   51.8907 H       1  ZINC000031496632    0.1700
@<TRIPOS>BOND
     1     1     2    1
     2     1    31    1
     3     1    32    1
     4     1    33    1
     5     2     3    1
     6     2     4    1
     7     2    34    1
     8     3    35    1
     9     3    36    1
    10     3    37    1
    11     4    30    1
    12     4     5    1
    13     5     6    2
    14     6     7    1
    15     6    38    1
    16     7    30   ar
    17     7     8   ar
    18     8     9   ar
    19     8    39    1
    20     9    10    1
    21     9    28   ar
    22    10    11   am
    23    10    40    1
    24    11    12    2
    25    11    13    1
    26    13    18   ar
    27    13    14   ar
    28    14    15   ar
    29    14    41    1
    30    15    16   ar
    31    15    42    1
    32    16    17   ar
    33    16    43    1
    34    17    18   ar
    35    17    44    1
    36    18    19    1
    37    19    20    1
    38    20    21    1
    39    20    45    1
    40    20    46    1
    41    21    22    2
    42    21    23   am
    43    23    27    1
    44    23    24    1
    45    24    25    1
    46    24    47    1
    47    24    48    1
    48    25    26    1
    49    25    49    1
    50    25    50    1
    51    26    27    1
    52    26    51    1
    53    26    52    1
    54    27    53    1
    55    27    54    1
    56    28    29   ar
    57    28    55    1
    58    29    30   ar
@<TRIPOS>SUBSTRUCTURE
     1 ZINC000031496632        1 TEMP              0 ****  ****    0 ROOT


##########                                Name:    ZINC000434204837
##########                DOCK_Rotatable_Bonds:                   7
##########                         Heavy_Atoms:                  29
##########                    Molecular_Weight:             406.511
##########                DOCK_Rotatable_Bonds:                   7
##########                       Formal_Charge:          -0.0200002
##########                     HBond_Acceptors:                   8
##########                        HBond_Donors:                   0
##########                         Heavy_Atoms:                  29
##########                          Grid_Score:          -36.026741
##########                     Grid_vdw_energy:          -34.571472
##########                      Grid_es_energy:           -1.455269
##########           Internal_energy_repulsive:           14.578458

@<TRIPOS>MOLECULE
ZINC000434204837
 51 54 1 0 0
SMALL
USER_CHARGES


@<TRIPOS>ATOM
      1 C1          1.0384   -0.6967   61.6701 C.3     1  ZINC000434204837   -0.1300
      2 C2          0.2675    0.5901   61.8150 C.ar    1  ZINC000434204837   -0.0700
      3 C3         -0.1871    0.9871   63.0583 C.ar    1  ZINC000434204837   -0.1200
      4 C4         -0.8943    2.1677   63.1911 C.ar    1  ZINC000434204837   -0.1100
      5 C5         -1.1463    2.9511   62.0807 C.ar    1  ZINC000434204837   -0.1300
      6 C6         -0.6907    2.5544   60.8371 C.ar    1  ZINC000434204837   -0.0900
      7 C7          0.0200    1.3763   60.7049 C.ar    1  ZINC000434204837   -0.1000
      8 C8          0.5166    0.9439   59.3494 C.3     1  ZINC000434204837    0.0100
      9 C9          0.0705    1.9396   58.3099 C.2     1  ZINC000434204837    0.2000
     10 N10        -1.1139    2.0078   57.7514 N.2     1  ZINC000434204837   -0.4600
     11 C11        -1.0509    3.0419   56.8939 C.2     1  ZINC000434204837    0.1700
     12 C12        -2.1644    3.5326   56.0048 C.3     1  ZINC000434204837   -0.0300
     13 S13        -1.5280    3.7967   54.3310 S.3     1  ZINC000434204837    0.0900
     14 C14        -3.0105    4.2856   53.5136 C.2     1  ZINC000434204837    0.2100
     15 N15        -3.9869    5.0025   54.0271 N.2     1  ZINC000434204837   -0.3300
     16 N16        -4.9190    5.1786   53.1617 N.2     1  ZINC000434204837   -0.0200
     17 N17        -4.6163    4.5992   52.0508 N.2     1  ZINC000434204837   -0.0700
     18 N18        -3.3583    3.9989   52.2338 N.pl3   1  ZINC000434204837   -0.3100
     19 C19        -2.6245    3.2565   51.2977 C.ar    1  ZINC000434204837    0.1100
     20 C20        -1.6156    3.8655   50.5638 C.ar    1  ZINC000434204837   -0.1100
     21 C21        -0.8941    3.1315   49.6426 C.ar    1  ZINC000434204837   -0.0900
     22 C22        -1.1762    1.7915   49.4507 C.ar    1  ZINC000434204837   -0.0600
     23 C23        -0.3871    0.9934   48.4449 C.3     1  ZINC000434204837   -0.0600
     24 C24        -0.5336    1.6296   47.0611 C.3     1  ZINC000434204837   -0.1500
     25 C25         1.0889    0.9825   48.8475 C.3     1  ZINC000434204837   -0.1500
     26 C26        -2.1805    1.1821   50.1802 C.ar    1  ZINC000434204837   -0.1000
     27 C27        -2.9015    1.9095   51.1068 C.ar    1  ZINC000434204837   -0.0900
     28 N28         0.1464    3.5407   56.9731 N.2     1  ZINC000434204837   -0.3600
     29 O29         0.8047    2.9253   57.7851 O.3     1  ZINC000434204837    0.0900
     30 H30         2.1026   -0.4993   61.7990 H       1  ZINC000434204837    0.0800
     31 H31         0.7063   -1.4065   62.4278 H       1  ZINC000434204837    0.0700
     32 H32         0.8639   -1.1152   60.6789 H       1  ZINC000434204837    0.0700
     33 H33         0.0097    0.3750   63.9260 H       1  ZINC000434204837    0.1300
     34 H34        -1.2502    2.4775   64.1626 H       1  ZINC000434204837    0.1200
     35 H35        -1.6993    3.8730   62.1843 H       1  ZINC000434204837    0.1300
     36 H36        -0.8878    3.1663   59.9693 H       1  ZINC000434204837    0.1300
     37 H37         1.6054    0.8933   59.3605 H       1  ZINC000434204837    0.1200
     38 H38         0.1096   -0.0384   59.1097 H       1  ZINC000434204837    0.1200
     39 H39        -2.9616    2.7898   55.9773 H       1  ZINC000434204837    0.1300
     40 H40        -2.5557    4.4712   56.3970 H       1  ZINC000434204837    0.1400
     41 H41        -1.3953    4.9122   50.7127 H       1  ZINC000434204837    0.1400
     42 H42        -0.1092    3.6047   49.0714 H       1  ZINC000434204837    0.1400
     43 H43        -0.7636   -0.0290   48.4165 H       1  ZINC000434204837    0.0800
     44 H44        -0.1571    2.6521   47.0897 H       1  ZINC000434204837    0.0600
     45 H45         0.0371    1.0524   46.3336 H       1  ZINC000434204837    0.0600
     46 H46        -1.5853    1.6374   46.7743 H       1  ZINC000434204837    0.0600
     47 H47         1.1933    0.5293   49.8333 H       1  ZINC000434204837    0.0600
     48 H48         1.6596    0.4053   48.1200 H       1  ZINC000434204837    0.0600
     49 H49         1.4654    2.0050   48.8759 H       1  ZINC000434204837    0.0600
     50 H50        -2.3988    0.1354   50.0279 H       1  ZINC000434204837    0.1400
     51 H51        -3.6858    1.4331   51.6763 H       1  ZINC000434204837    0.1400
@<TRIPOS>BOND
     1     1     2    1
     2     1    30    1
     3     1    31    1
     4     1    32    1
     5     2     7   ar
     6     2     3   ar
     7     3     4   ar
     8     3    33    1
     9     4     5   ar
    10     4    34    1
    11     5     6   ar
    12     5    35    1
    13     6     7   ar
    14     6    36    1
    15     7     8    1
    16     8     9    1
    17     8    37    1
    18     8    38    1
    19     9    29    1
    20     9    10    2
    21    10    11    1
    22    11    12    1
    23    11    28    2
    24    12    13    1
    25    12    39    1
    26    12    40    1
    27    13    14    1
    28    14    18    1
    29    14    15    2
    30    15    16    1
    31    16    17    2
    32    17    18    1
    33    18    19    1
    34    19    27   ar
    35    19    20   ar
    36    20    21   ar
    37    20    41    1
    38    21    22   ar
    39    21    42    1
    40    22    23    1
    41    22    26   ar
    42    23    24    1
    43    23    25    1
    44    23    43    1
    45    24    44    1
    46    24    45    1
    47    24    46    1
    48    25    47    1
    49    25    48    1
    50    25    49    1
    51    26    27   ar
    52    26    50    1
    53    27    51    1
    54    28    29    1
@<TRIPOS>SUBSTRUCTURE
     1 ZINC000434204837        1 TEMP              0 ****  ****    0 ROOT


##########                                Name:    ZINC000562561773
##########                DOCK_Rotatable_Bonds:                   6
##########                         Heavy_Atoms:                  26
##########                    Molecular_Weight:             371.466
##########                DOCK_Rotatable_Bonds:                   6
##########                       Formal_Charge:           0.0199999
##########                     HBond_Acceptors:                   9
##########                        HBond_Donors:                   0
##########                         Heavy_Atoms:                  26
##########                          Grid_Score:          -35.946815
##########                     Grid_vdw_energy:          -34.499401
##########                      Grid_es_energy:           -1.447416
##########           Internal_energy_repulsive:            8.885325

@<TRIPOS>MOLECULE
ZINC000562561773
 47 50 1 0 0
SMALL
USER_CHARGES


@<TRIPOS>ATOM
      1 C1          3.0485    1.7902   48.1684 C.3     1  ZINC000562561773   -0.1100
      2 C2          1.6631    1.7129   48.7567 C.ar    1  ZINC000562561773   -0.0400
      3 C3          1.4975    1.6841   50.1281 C.ar    1  ZINC000562561773   -0.1200
      4 C4          0.2308    1.6132   50.6734 C.ar    1  ZINC000562561773   -0.0700
      5 C5         -0.8855    1.5706   49.8406 C.ar    1  ZINC000562561773   -0.0300
      6 C6         -2.2477    1.4949   50.4254 C.2     1  ZINC000562561773    0.2200
      7 N7         -2.7892    2.3573   51.2456 N.2     1  ZINC000562561773   -0.3700
      8 O8         -3.9127    2.0060   51.5377 O.3     1  ZINC000562561773    0.0900
      9 C9         -4.2086    0.8581   50.9198 C.2     1  ZINC000562561773    0.1900
     10 C10        -5.5045    0.0956   51.0205 C.3     1  ZINC000562561773   -0.0100
     11 C11        -6.6568    1.0759   51.2478 C.3     1  ZINC000562561773   -0.1200
     12 S12        -6.7372    2.2434   49.8669 S.3     1  ZINC000562561773    0.0600
     13 C13        -7.9558    3.3587   50.4797 C.2     1  ZINC000562561773    0.2100
     14 N14        -8.6190    3.2476   51.6103 N.2     1  ZINC000562561773   -0.3300
     15 N15        -9.4321    4.2313   51.7533 N.2     1  ZINC000562561773   -0.0300
     16 N16        -9.3513    5.0297   50.7444 N.2     1  ZINC000562561773   -0.0700
     17 N17        -8.3818    4.4946   49.8784 N.pl3   1  ZINC000562561773   -0.3600
     18 C18        -7.9347    5.0435   48.5958 C.3     1  ZINC000562561773    0.0800
     19 N19        -3.1630    0.5243   50.2051 N.2     1  ZINC000562561773   -0.4600
     20 C20        -0.7201    1.5996   48.4585 C.ar    1  ZINC000562561773   -0.1100
     21 C21         0.5550    1.6765   47.9184 C.ar    1  ZINC000562561773    0.0800
     22 N22         0.7262    1.7063   46.5322 N.3     1  ZINC000562561773   -0.4800
     23 C23         0.1804    0.4771   45.9020 C.3     1  ZINC000562561773    0.0400
     24 C24        -0.0296    0.8987   44.4259 C.3     1  ZINC000562561773   -0.1200
     25 C25        -0.5128    2.3620   44.5497 C.3     1  ZINC000562561773   -0.1300
     26 C26        -0.0191    2.8331   45.9303 C.3     1  ZINC000562561773    0.0400
     27 H27         3.3336    2.8352   48.0465 H       1  ZINC000562561773    0.0700
     28 H28         3.7547    1.2964   48.8359 H       1  ZINC000562561773    0.0600
     29 H29         3.0590    1.2951   47.1974 H       1  ZINC000562561773    0.0800
     30 H30         2.3614    1.7167   50.7755 H       1  ZINC000562561773    0.1400
     31 H31         0.1054    1.5905   51.7459 H       1  ZINC000562561773    0.1400
     32 H32        -5.6740   -0.4565   50.0961 H       1  ZINC000562561773    0.1200
     33 H33        -5.4512   -0.6026   51.8559 H       1  ZINC000562561773    0.1300
     34 H34        -7.5951    0.5251   51.3129 H       1  ZINC000562561773    0.1100
     35 H35        -6.4913    1.6224   52.1763 H       1  ZINC000562561773    0.1100
     36 H36        -7.0946    5.7178   48.7622 H       1  ZINC000562561773    0.1000
     37 H37        -7.6231    4.2296   47.9411 H       1  ZINC000562561773    0.1000
     38 H38        -8.7536    5.5915   48.1299 H       1  ZINC000562561773    0.1100
     39 H39        -1.5823    1.5664   47.8090 H       1  ZINC000562561773    0.1300
     40 H40         0.8973   -0.3411   45.9701 H       1  ZINC000562561773    0.0900
     41 H41        -0.7682    0.1980   46.3609 H       1  ZINC000562561773    0.0500
     42 H42         0.9085    0.8478   43.8731 H       1  ZINC000562561773    0.0800
     43 H43        -0.7916    0.2796   43.9525 H       1  ZINC000562561773    0.0700
     44 H44        -0.0732    2.9736   43.7618 H       1  ZINC000562561773    0.0800
     45 H45        -1.6009    2.4064   44.5017 H       1  ZINC000562561773    0.0700
     46 H46        -0.8699    3.0940   46.5597 H       1  ZINC000562561773    0.0500
     47 H47         0.6391    3.6943   45.8152 H       1  ZINC000562561773    0.0800
@<TRIPOS>BOND
     1     1     2    1
     2     1    27    1
     3     1    28    1
     4     1    29    1
     5     2    21   ar
     6     2     3   ar
     7     3     4   ar
     8     3    30    1
     9     4     5   ar
    10     4    31    1
    11     5     6    1
    12     5    20   ar
    13     6    19    1
    14     6     7    2
    15     7     8    1
    16     8     9    1
    17     9    10    1
    18     9    19    2
    19    10    11    1
    20    10    32    1
    21    10    33    1
    22    11    12    1
    23    11    34    1
    24    11    35    1
    25    12    13    1
    26    13    17    1
    27    13    14    2
    28    14    15    1
    29    15    16    2
    30    16    17    1
    31    17    18    1
    32    18    36    1
    33    18    37    1
    34    18    38    1
    35    20    21   ar
    36    20    39    1
    37    21    22    1
    38    22    26    1
    39    22    23    1
    40    23    24    1
    41    23    40    1
    42    23    41    1
    43    24    25    1
    44    24    42    1
    45    24    43    1
    46    25    26    1
    47    25    44    1
    48    25    45    1
    49    26    46    1
    50    26    47    1
@<TRIPOS>SUBSTRUCTURE
     1 ZINC000562561773        1 TEMP              0 ****  ****    0 ROOT


##########                                Name:    ZINC000045927156
##########                DOCK_Rotatable_Bonds:                   7
##########                         Heavy_Atoms:                  30
##########                    Molecular_Weight:             418.522
##########                DOCK_Rotatable_Bonds:                   7
##########                       Formal_Charge:           0.0200001
##########                     HBond_Acceptors:                   8
##########                        HBond_Donors:                   1
##########                         Heavy_Atoms:                  30
##########                          Grid_Score:          -35.839493
##########                     Grid_vdw_energy:          -34.937622
##########                      Grid_es_energy:           -0.901872
##########           Internal_energy_repulsive:           17.523216

@<TRIPOS>MOLECULE
ZINC000045927156
 52 56 1 0 0
SMALL
USER_CHARGES


@<TRIPOS>ATOM
      1 O1          1.0886    1.3543   48.3377 O.2     1  ZINC000045927156   -0.5800
      2 C2          0.1947    2.0323   48.8063 C.2     1  ZINC000045927156    0.7300
      3 N3         -0.8114    2.4594   48.0177 N.am    1  ZINC000045927156   -0.7400
      4 C4         -0.8248    2.1117   46.5946 C.3     1  ZINC000045927156    0.1700
      5 C5         -0.2506    3.2518   45.7936 C.ar    1  ZINC000045927156   -0.0700
      6 C6         -0.3467    4.5466   46.2674 C.ar    1  ZINC000045927156   -0.1000
      7 C7          0.1800    5.5925   45.5325 C.ar    1  ZINC000045927156   -0.1100
      8 C8          0.8030    5.3433   44.3242 C.ar    1  ZINC000045927156   -0.1100
      9 C9          0.8999    4.0480   43.8507 C.ar    1  ZINC000045927156   -0.1000
     10 C10         0.3772    3.0019   44.5873 C.ar    1  ZINC000045927156   -0.1000
     11 C11         0.4829    1.5900   44.0712 C.3     1  ZINC000045927156    0.1700
     12 N12         1.8195    1.0638   44.3588 N.pl3   1  ZINC000045927156   -0.3800
     13 C13         2.6553    1.4737   45.3287 C.2     1  ZINC000045927156    0.2500
     14 N14         3.7461    0.7550   45.2553 N.2     1  ZINC000045927156   -0.5400
     15 C15         3.6442   -0.1203   44.2558 C.2     1  ZINC000045927156    0.2000
     16 N16         2.4799    0.0266   43.6801 N.2     1  ZINC000045927156   -0.3100
     17 N17         0.2070    2.3522   50.1155 N.am    1  ZINC000045927156   -0.6200
     18 C18         1.2407    1.9528   51.0879 C.3     1  ZINC000045927156    0.1000
     19 C19         1.1638    3.0190   52.2089 C.3     1  ZINC000045927156   -0.1300
     20 C20        -0.3633    3.2836   52.2829 C.3     1  ZINC000045927156   -0.1200
     21 C21        -0.8047    3.1625   50.8093 C.3     1  ZINC000045927156    0.2300
     22 H22        -0.8665    4.1529   50.3582 H       1  ZINC000045927156    0.1000
     23 C23        -2.1456    2.4791   50.7303 C.2     1  ZINC000045927156    0.0900
     24 N24        -3.2606    3.0501   50.9895 N.2     1  ZINC000045927156   -0.4500
     25 C25        -4.3842    2.3162   50.8769 C.ar    1  ZINC000045927156    0.0800
     26 C26        -5.7262    2.6852   51.0980 C.ar    1  ZINC000045927156   -0.0700
     27 C27        -6.7282    1.7787   50.9261 C.ar    1  ZINC000045927156   -0.1100
     28 C28        -6.4490    0.4782   50.5307 C.ar    1  ZINC000045927156   -0.1000
     29 C29        -5.1471    0.0895   50.3074 C.ar    1  ZINC000045927156   -0.0700
     30 C30        -4.1095    1.0031   50.4783 C.ar    1  ZINC000045927156   -0.1800
     31 S31        -2.3670    0.8489   50.2770 S.3     1  ZINC000045927156    0.1200
     32 H32        -1.5266    2.9970   48.3925 H       1  ZINC000045927156    0.3900
     33 H33        -0.2246    1.2162   46.4338 H       1  ZINC000045927156    0.1000
     34 H34        -1.8501    1.9240   46.2761 H       1  ZINC000045927156    0.0700
     35 H35        -0.8336    4.7414   47.2116 H       1  ZINC000045927156    0.1300
     36 H36         0.1043    6.6043   45.9024 H       1  ZINC000045927156    0.1300
     37 H37         1.2138    6.1604   43.7498 H       1  ZINC000045927156    0.1300
     38 H38         1.3864    3.8532   42.9063 H       1  ZINC000045927156    0.1300
     39 H39        -0.2658    0.9672   44.5608 H       1  ZINC000045927156    0.1100
     40 H40         0.3136    1.5831   42.9945 H       1  ZINC000045927156    0.1000
     41 H41         2.4607    2.2597   46.0433 H       1  ZINC000045927156    0.2200
     42 H42         4.3994   -0.8376   43.9704 H       1  ZINC000045927156    0.2200
     43 H43         1.0216    0.9635   51.4896 H       1  ZINC000045927156    0.0700
     44 H44         2.2255    1.9639   50.6207 H       1  ZINC000045927156    0.0800
     45 H45         1.5376    2.6216   53.1525 H       1  ZINC000045927156    0.0900
     46 H46         1.7036    3.9228   51.9263 H       1  ZINC000045927156    0.0800
     47 H47        -0.8555    2.5318   52.8998 H       1  ZINC000045927156    0.0900
     48 H48        -0.5631    4.2858   52.6619 H       1  ZINC000045927156    0.0900
     49 H49        -5.9617    3.6932   51.4061 H       1  ZINC000045927156    0.1300
     50 H50        -7.7520    2.0753   51.0998 H       1  ZINC000045927156    0.1400
     51 H51        -7.2537   -0.2298   50.3984 H       1  ZINC000045927156    0.1400
     52 H52        -4.9305   -0.9230   50.0005 H       1  ZINC000045927156    0.1300
@<TRIPOS>BOND
     1     1     2    2
     2     2     3   am
     3     2    17   am
     4     3     4    1
     5     3    32    1
     6     4     5    1
     7     4    33    1
     8     4    34    1
     9     5    10   ar
    10     5     6   ar
    11     6     7   ar
    12     6    35    1
    13     7     8   ar
    14     7    36    1
    15     8     9   ar
    16     8    37    1
    17     9    10   ar
    18     9    38    1
    19    10    11    1
    20    11    12    1
    21    11    39    1
    22    11    40    1
    23    12    16    1
    24    12    13    1
    25    13    14    2
    26    13    41    1
    27    14    15    1
    28    15    16    2
    29    15    42    1
    30    17    21    1
    31    17    18    1
    32    18    19    1
    33    18    43    1
    34    18    44    1
    35    19    20    1
    36    19    45    1
    37    19    46    1
    38    20    21    1
    39    20    47    1
    40    20    48    1
    41    21    22    1
    42    21    23    1
    43    23    31    1
    44    23    24    2
    45    24    25    1
    46    25    30   ar
    47    25    26   ar
    48    26    27   ar
    49    26    49    1
    50    27    28   ar
    51    27    50    1
    52    28    29   ar
    53    28    51    1
    54    29    30   ar
    55    29    52    1
    56    30    31    1
@<TRIPOS>SUBSTRUCTURE
     1 ZINC000045927156        1 TEMP              0 ****  ****    0 ROOT


##########                                Name:    ZINC000062291520
##########                DOCK_Rotatable_Bonds:                  10
##########                         Heavy_Atoms:                  29
##########                    Molecular_Weight:             398.502
##########                DOCK_Rotatable_Bonds:                  10
##########                       Formal_Charge:          -0.0100006
##########                     HBond_Acceptors:                   6
##########                        HBond_Donors:                   1
##########                         Heavy_Atoms:                  29
##########                          Grid_Score:          -35.817387
##########                     Grid_vdw_energy:          -34.756229
##########                      Grid_es_energy:           -1.061156
##########           Internal_energy_repulsive:           22.684761

@<TRIPOS>MOLECULE
ZINC000062291520
 59 61 1 0 0
SMALL
USER_CHARGES


@<TRIPOS>ATOM
      1 C1         -7.9373    9.3404   44.7661 C.3     1  ZINC000062291520    0.0300
      2 O2         -7.8047    8.5891   45.9744 O.3     1  ZINC000062291520   -0.3100
      3 C3         -8.9403    8.0520   46.4952 C.ar    1  ZINC000062291520    0.1000
      4 C4        -10.1551    8.2448   45.8579 C.ar    1  ZINC000062291520   -0.1700
      5 C5        -11.3097    7.7026   46.3920 C.ar    1  ZINC000062291520   -0.1200
      6 C6        -11.2544    6.9630   47.5582 C.ar    1  ZINC000062291520   -0.1200
      7 C7        -10.0441    6.7615   48.1959 C.ar    1  ZINC000062291520   -0.1700
      8 C8         -8.8837    7.3018   47.6663 C.ar    1  ZINC000062291520    0.1000
      9 O9         -7.6926    7.1044   48.2923 O.3     1  ZINC000062291520   -0.3100
     10 C10        -7.6640    6.1350   49.3418 C.3     1  ZINC000062291520    0.0700
     11 C11        -7.7611    4.7309   48.7420 C.3     1  ZINC000062291520   -0.1400
     12 C12        -7.3088    3.7169   49.7609 C.2     1  ZINC000062291520    0.5200
     13 O13        -7.5782    3.8734   50.9330 O.2     1  ZINC000062291520   -0.5400
     14 N14        -6.6049    2.6363   49.3696 N.am    1  ZINC000062291520   -0.7200
     15 C15        -6.1668    1.6496   50.3599 C.3     1  ZINC000062291520    0.1600
     16 C16        -4.7397    1.9323   50.7533 C.ar    1  ZINC000062291520   -0.1100
     17 C17        -4.4692    2.7890   51.8036 C.ar    1  ZINC000062291520   -0.1000
     18 C18        -3.1599    3.0479   52.1648 C.ar    1  ZINC000062291520   -0.1200
     19 C19        -2.1217    2.4502   51.4754 C.ar    1  ZINC000062291520   -0.0900
     20 C20        -2.3924    1.5937   50.4245 C.ar    1  ZINC000062291520   -0.0800
     21 C21        -1.2604    0.9422   49.6727 C.3     1  ZINC000062291520    0.0900
     22 N22        -0.6672    1.9127   48.7431 N.3     1  ZINC000062291520   -0.5300
     23 C23         0.7955    1.9531   48.8861 C.3     1  ZINC000062291520    0.0100
     24 C24         1.3656    3.0169   47.9443 C.3     1  ZINC000062291520    0.0600
     25 O25         0.9605    2.7262   46.6039 O.3     1  ZINC000062291520   -0.3800
     26 C26        -0.4581    2.6798   46.4285 C.3     1  ZINC000062291520    0.0900
     27 H27        -0.8870    3.6516   46.6728 H       1  ZINC000062291520    0.0700
     28 C28        -0.7818    2.3294   44.9748 C.3     1  ZINC000062291520   -0.1500
     29 C29        -1.0468    1.6126   47.3550 C.3     1  ZINC000062291520    0.0200
     30 C30        -3.7013    1.3302   50.0672 C.ar    1  ZINC000062291520   -0.0900
     31 H31        -8.3444    8.7004   43.9832 H       1  ZINC000062291520    0.0500
     32 H32        -8.6094   10.1821   44.9335 H       1  ZINC000062291520    0.0600
     33 H33        -6.9593    9.7117   44.4599 H       1  ZINC000062291520    0.1000
     34 H34       -10.2011    8.8224   44.9466 H       1  ZINC000062291520    0.1400
     35 H35       -12.2568    7.8573   45.8964 H       1  ZINC000062291520    0.1300
     36 H36       -12.1583    6.5412   47.9721 H       1  ZINC000062291520    0.1300
     37 H37       -10.0034    6.1825   49.1068 H       1  ZINC000062291520    0.1400
     38 H38        -8.5058    6.3022   50.0137 H       1  ZINC000062291520    0.0700
     39 H39        -6.7311    6.2288   49.8978 H       1  ZINC000062291520    0.0700
     40 H40        -7.1245    4.6680   47.8594 H       1  ZINC000062291520    0.1100
     41 H41        -8.7941    4.5269   48.4601 H       1  ZINC000062291520    0.1100
     42 H42        -6.3885    2.5117   48.4323 H       1  ZINC000062291520    0.4000
     43 H43        -6.8055    1.7109   51.2411 H       1  ZINC000062291520    0.0800
     44 H44        -6.2342    0.6497   49.9311 H       1  ZINC000062291520    0.0800
     45 H45        -5.2804    3.2557   52.3425 H       1  ZINC000062291520    0.1200
     46 H46        -2.9485    3.7171   52.9857 H       1  ZINC000062291520    0.1300
     47 H47        -1.0990    2.6526   51.7576 H       1  ZINC000062291520    0.1200
     48 H48        -0.5018    0.6050   50.3790 H       1  ZINC000062291520    0.0500
     49 H49        -1.6405    0.0879   49.1125 H       1  ZINC000062291520    0.0900
     50 H50         1.0538    2.2021   49.9154 H       1  ZINC000062291520    0.0900
     51 H51         1.2131    0.9791   48.6315 H       1  ZINC000062291520    0.0400
     52 H52         0.9896    3.9983   48.2335 H       1  ZINC000062291520    0.0600
     53 H53         2.4539    3.0110   48.0050 H       1  ZINC000062291520    0.1000
     54 H54        -0.3540    1.3569   44.7315 H       1  ZINC000062291520    0.0600
     55 H55        -1.8631    2.2942   44.8417 H       1  ZINC000062291520    0.0700
     56 H56        -0.3592    3.0875   44.3154 H       1  ZINC000062291520    0.0700
     57 H57        -0.6586    0.6333   47.0750 H       1  ZINC000062291520    0.0400
     58 H58        -2.1332    1.6130   47.2665 H       1  ZINC000062291520    0.0900
     59 H59        -3.9128    0.6574   49.2493 H       1  ZINC000062291520    0.1200
@<TRIPOS>BOND
     1     1     2    1
     2     1    31    1
     3     1    32    1
     4     1    33    1
     5     2     3    1
     6     3     8   ar
     7     3     4   ar
     8     4     5   ar
     9     4    34    1
    10     5     6   ar
    11     5    35    1
    12     6     7   ar
    13     6    36    1
    14     7     8   ar
    15     7    37    1
    16     8     9    1
    17     9    10    1
    18    10    11    1
    19    10    38    1
    20    10    39    1
    21    11    12    1
    22    11    40    1
    23    11    41    1
    24    12    13    2
    25    12    14   am
    26    14    15    1
    27    14    42    1
    28    15    16    1
    29    15    43    1
    30    15    44    1
    31    16    30   ar
    32    16    17   ar
    33    17    18   ar
    34    17    45    1
    35    18    19   ar
    36    18    46    1
    37    19    20   ar
    38    19    47    1
    39    20    21    1
    40    20    30   ar
    41    21    22    1
    42    21    48    1
    43    21    49    1
    44    22    29    1
    45    22    23    1
    46    23    24    1
    47    23    50    1
    48    23    51    1
    49    24    25    1
    50    24    52    1
    51    24    53    1
    52    25    26    1
    53    26    27    1
    54    26    28    1
    55    26    29    1
    56    28    54    1
    57    28    55    1
    58    28    56    1
    59    29    57    1
    60    29    58    1
    61    30    59    1
@<TRIPOS>SUBSTRUCTURE
     1 ZINC000062291520        1 TEMP              0 ****  ****    0 ROOT


##########                                Name:    ZINC000471198073
##########                DOCK_Rotatable_Bonds:                  12
##########                         Heavy_Atoms:                  30
##########                    Molecular_Weight:             409.528
##########                DOCK_Rotatable_Bonds:                  12
##########                       Formal_Charge:          -0.0399998
##########                     HBond_Acceptors:                   6
##########                        HBond_Donors:                   3
##########                         Heavy_Atoms:                  30
##########                          Grid_Score:          -35.800262
##########                     Grid_vdw_energy:          -34.469044
##########                      Grid_es_energy:           -1.331218
##########           Internal_energy_repulsive:           22.664413

@<TRIPOS>MOLECULE
ZINC000471198073
 61 62 1 0 0
SMALL
USER_CHARGES


@<TRIPOS>ATOM
      1 C1          0.4104    3.3043   44.2551 C.3     1  ZINC000471198073   -0.1400
      2 C2         -0.7245    2.4305   44.7931 C.3     1  ZINC000471198073   -0.1100
      3 C3         -0.4048    0.9582   44.5267 C.3     1  ZINC000471198073   -0.1500
      4 C4         -0.8695    2.6525   46.2766 C.2     1  ZINC000471198073    0.5200
      5 O5         -0.6962    3.7582   46.7441 O.2     1  ZINC000471198073   -0.5200
      6 N6         -1.1918    1.6225   47.0838 N.am    1  ZINC000471198073   -0.6700
      7 C7         -1.3263    1.8288   48.4613 C.ar    1  ZINC000471198073    0.1600
      8 C8         -0.1974    2.0013   49.2520 C.ar    1  ZINC000471198073   -0.1500
      9 C9         -0.3292    2.2054   50.6125 C.ar    1  ZINC000471198073   -0.0800
     10 C10        -1.5831    2.2387   51.1906 C.ar    1  ZINC000471198073   -0.1300
     11 C11        -2.7169    2.0662   50.4051 C.ar    1  ZINC000471198073    0.1500
     12 N12        -3.9852    2.0995   50.9905 N.am    1  ZINC000471198073   -0.6400
     13 C13        -4.8323    1.0647   50.8224 C.2     1  ZINC000471198073    0.5100
     14 O14        -4.4935    0.1040   50.1626 O.2     1  ZINC000471198073   -0.5000
     15 C15        -6.1880    1.1003   51.4482 C.2     1  ZINC000471198073    0.5100
     16 O16        -7.0088    0.2519   51.1664 O.2     1  ZINC000471198073   -0.5100
     17 N17        -6.4998    2.0745   52.3257 N.am    1  ZINC000471198073   -0.7000
     18 C18        -7.8300    2.1104   52.9382 C.3     1  ZINC000471198073    0.1200
     19 C19        -8.2703    3.5648   53.1168 C.3     1  ZINC000471198073   -0.0900
     20 H20        -7.3954    4.2146   53.0942 H       1  ZINC000471198073    0.0800
     21 C21        -9.2227    3.9522   51.9838 C.3     1  ZINC000471198073   -0.0800
     22 C22        -8.4464    4.6315   50.8852 C.ar    1  ZINC000471198073   -0.0800
     23 C23        -8.3694    6.0110   50.8445 C.ar    1  ZINC000471198073   -0.1200
     24 C24        -7.6574    6.6341   49.8367 C.ar    1  ZINC000471198073   -0.1200
     25 C25        -7.0220    5.8776   48.8698 C.ar    1  ZINC000471198073   -0.1200
     26 C26        -7.0983    4.4980   48.9110 C.ar    1  ZINC000471198073   -0.1200
     27 C27        -7.8067    3.8748   49.9213 C.ar    1  ZINC000471198073   -0.1200
     28 C28        -8.9860    3.7196   54.4601 C.3     1  ZINC000471198073   -0.1000
     29 C29       -10.0603    2.6384   54.5932 C.3     1  ZINC000471198073   -0.1600
     30 C30        -7.9729    3.5747   55.5976 C.3     1  ZINC000471198073   -0.1700
     31 C31        -2.5879    1.8667   49.0377 C.ar    1  ZINC000471198073   -0.1400
     32 H32         0.5152    3.1437   43.1822 H       1  ZINC000471198073    0.0700
     33 H33         0.1826    4.3532   44.4449 H       1  ZINC000471198073    0.0600
     34 H34         1.3417    3.0385   44.7550 H       1  ZINC000471198073    0.0600
     35 H35        -1.6559    2.6962   44.2932 H       1  ZINC000471198073    0.1000
     36 H36         0.5266    0.6924   45.0266 H       1  ZINC000471198073    0.0600
     37 H37        -1.2133    0.3356   44.9100 H       1  ZINC000471198073    0.0600
     38 H38        -0.2999    0.7975   43.4537 H       1  ZINC000471198073    0.0700
     39 H39        -1.3302    0.7383   46.7100 H       1  ZINC000471198073    0.4100
     40 H40         0.7846    1.9755   48.8032 H       1  ZINC000471198073    0.1300
     41 H41         0.5502    2.3389   51.2250 H       1  ZINC000471198073    0.1300
     42 H42        -1.6828    2.3983   52.2541 H       1  ZINC000471198073    0.1400
     43 H43        -4.2560    2.8673   51.5179 H       1  ZINC000471198073    0.4200
     44 H44        -5.8433    2.7519   52.5518 H       1  ZINC000471198073    0.4200
     45 H45        -8.5406    1.5922   52.2942 H       1  ZINC000471198073    0.0700
     46 H46        -7.7957    1.6192   53.9106 H       1  ZINC000471198073    0.0800
     47 H47        -9.7019    3.0560   51.5896 H       1  ZINC000471198073    0.0800
     48 H48        -9.9835    4.6330   52.3656 H       1  ZINC000471198073    0.0800
     49 H49        -8.8659    6.6021   51.5998 H       1  ZINC000471198073    0.1200
     50 H50        -7.5979    7.7120   49.8045 H       1  ZINC000471198073    0.1200
     51 H51        -6.4663    6.3644   48.0821 H       1  ZINC000471198073    0.1200
     52 H52        -6.6021    3.9069   48.1555 H       1  ZINC000471198073    0.1200
     53 H53        -7.8663    2.7969   49.9535 H       1  ZINC000471198073    0.1200
     54 H54        -9.4523    4.7035   54.5121 H       1  ZINC000471198073    0.0800
     55 H55        -9.5856    1.6583   54.6401 H       1  ZINC000471198073    0.0600
     56 H56       -10.6352    2.8076   55.5037 H       1  ZINC000471198073    0.0600
     57 H57       -10.7255    2.6790   53.7308 H       1  ZINC000471198073    0.0600
     58 H58        -7.1414    4.2600   55.4330 H       1  ZINC000471198073    0.0600
     59 H59        -8.4555    3.8101   56.5461 H       1  ZINC000471198073    0.0600
     60 H60        -7.6002    2.5508   55.6238 H       1  ZINC000471198073    0.0700
     61 H61        -3.4671    1.7325   48.4251 H       1  ZINC000471198073    0.1400
@<TRIPOS>BOND
     1     1     2    1
     2     1    32    1
     3     1    33    1
     4     1    34    1
     5     2     3    1
     6     2     4    1
     7     2    35    1
     8     3    36    1
     9     3    37    1
    10     3    38    1
    11     4     5    2
    12     4     6   am
    13     6     7    1
    14     6    39    1
    15     7    31   ar
    16     7     8   ar
    17     8     9   ar
    18     8    40    1
    19     9    10   ar
    20     9    41    1
    21    10    11   ar
    22    10    42    1
    23    11    12    1
    24    11    31   ar
    25    12    13   am
    26    12    43    1
    27    13    14    2
    28    13    15    1
    29    15    16    2
    30    15    17   am
    31    17    18    1
    32    17    44    1
    33    18    19    1
    34    18    45    1
    35    18    46    1
    36    19    20    1
    37    19    21    1
    38    19    28    1
    39    21    22    1
    40    21    47    1
    41    21    48    1
    42    22    27   ar
    43    22    23   ar
    44    23    24   ar
    45    23    49    1
    46    24    25   ar
    47    24    50    1
    48    25    26   ar
    49    25    51    1
    50    26    27   ar
    51    26    52    1
    52    27    53    1
    53    28    29    1
    54    28    30    1
    55    28    54    1
    56    29    55    1
    57    29    56    1
    58    29    57    1
    59    30    58    1
    60    30    59    1
    61    30    60    1
    62    31    61    1
@<TRIPOS>SUBSTRUCTURE
     1 ZINC000471198073        1 TEMP              0 ****  ****    0 ROOT


##########                                Name:    ZINC000621594459
##########                DOCK_Rotatable_Bonds:                  10
##########                         Heavy_Atoms:                  25
##########                    Molecular_Weight:             389.497
##########                DOCK_Rotatable_Bonds:                  10
##########                       Formal_Charge:         -7.7486e-07
##########                     HBond_Acceptors:                  10
##########                        HBond_Donors:                   3
##########                         Heavy_Atoms:                  25
##########                          Grid_Score:          -35.798698
##########                     Grid_vdw_energy:          -36.073067
##########                      Grid_es_energy:            0.274367
##########           Internal_energy_repulsive:           10.556545

@<TRIPOS>MOLECULE
ZINC000621594459
 48 49 1 0 0
SMALL
USER_CHARGES


@<TRIPOS>ATOM
      1 C1          0.7171    5.0629   45.3673 C.3     1  ZINC000621594459   -0.1600
      2 C2          0.0586    3.8285   44.7480 C.3     1  ZINC000621594459    0.1300
      3 C3          0.6140    3.6065   43.3398 C.3     1  ZINC000621594459   -0.1800
      4 N4          0.3450    2.6547   45.5766 N.am    1  ZINC000621594459   -1.1100
      5 S5         -0.7564    1.4221   45.6752 S.o2    1  ZINC000621594459    2.6200
      6 O6         -1.8918    2.0150   46.2905 O.2     1  ZINC000621594459   -0.9500
      7 O7         -0.8252    0.9071   44.3525 O.2     1  ZINC000621594459   -0.9400
      8 C8          0.0137    0.2150   46.7889 C.3     1  ZINC000621594459   -0.6600
      9 C9          0.4390    0.9133   48.0823 C.3     1  ZINC000621594459    0.1300
     10 N10        -0.7439    1.4519   48.7581 N.am    1  ZINC000621594459   -0.7200
     11 C11        -0.7852    1.5049   50.1042 C.2     1  ZINC000621594459    0.5600
     12 O12         0.1596    1.1073   50.7574 O.2     1  ZINC000621594459   -0.5200
     13 C13        -1.9797    2.0469   50.7864 C.ar    1  ZINC000621594459   -0.1500
     14 C14        -1.8507    3.0962   51.6974 C.ar    1  ZINC000621594459   -0.0300
     15 C15        -2.9695    3.5977   52.3303 C.ar    1  ZINC000621594459   -0.1400
     16 C16        -4.2170    3.0623   52.0638 C.ar    1  ZINC000621594459    0.0100
     17 C17        -4.3517    2.0214   51.1620 C.ar    1  ZINC000621594459   -0.6800
     18 S18        -5.9451    1.3463   50.8304 S.o2    1  ZINC000621594459    2.7000
     19 O19        -5.7264    0.1060   50.1722 O.2     1  ZINC000621594459   -0.9400
     20 O20        -6.6904    1.4665   52.0343 O.2     1  ZINC000621594459   -0.9500
     21 N21        -6.6778    2.3390   49.7258 N.am    1  ZINC000621594459   -1.0900
     22 C22        -6.9121    3.7485   50.0497 C.3     1  ZINC000621594459    0.0800
     23 C23        -7.9570    4.4993   49.2219 C.3     1  ZINC000621594459   -0.1800
     24 C24        -8.2610    4.1156   50.6714 C.3     1  ZINC000621594459   -0.1900
     25 C25        -3.2421    1.5150   50.5179 C.ar    1  ZINC000621594459    0.0400
     26 H26         0.5040    5.9362   44.7508 H       1  ZINC000621594459    0.0700
     27 H27         0.3214    5.2210   46.3705 H       1  ZINC000621594459    0.0700
     28 H28         1.7951    4.9109   45.4217 H       1  ZINC000621594459    0.0600
     29 H29        -1.0194    3.9805   44.6936 H       1  ZINC000621594459    0.0900
     30 H30         1.6920    3.4544   43.3942 H       1  ZINC000621594459    0.0700
     31 H31         0.1450    2.7270   42.8987 H       1  ZINC000621594459    0.0600
     32 H32         0.4009    4.4798   42.7233 H       1  ZINC000621594459    0.0700
     33 H33         1.1799    2.5997   46.0675 H       1  ZINC000621594459    0.4200
     34 H34        -0.7018   -0.5739   47.0204 H       1  ZINC000621594459    0.1400
     35 H35         0.8891   -0.2185   46.3055 H       1  ZINC000621594459    0.1400
     36 H36         0.9359    0.1963   48.7358 H       1  ZINC000621594459    0.0900
     37 H37         1.1252    1.7269   47.8472 H       1  ZINC000621594459    0.0900
     38 H38        -1.4974    1.7704   48.2369 H       1  ZINC000621594459    0.4000
     39 H39        -0.8774    3.5146   51.9067 H       1  ZINC000621594459    0.1300
     40 H40        -2.8712    4.4097   53.0355 H       1  ZINC000621594459    0.1400
     41 H41        -5.0895    3.4582   52.5622 H       1  ZINC000621594459    0.1500
     42 H42        -6.9519    1.9873   48.8643 H       1  ZINC000621594459    0.4200
     43 H43        -6.0364    4.3064   50.3814 H       1  ZINC000621594459    0.1400
     44 H44        -7.7688    5.5516   49.0085 H       1  ZINC000621594459    0.1100
     45 H45        -8.4700    3.9447   48.4362 H       1  ZINC000621594459    0.1000
     46 H46        -8.9742    3.3085   50.8394 H       1  ZINC000621594459    0.1000
     47 H47        -8.2729    4.9154   51.4118 H       1  ZINC000621594459    0.1000
     48 H48        -3.3486    0.7029   49.8140 H       1  ZINC000621594459    0.1600
@<TRIPOS>BOND
     1     1     2    1
     2     1    26    1
     3     1    27    1
     4     1    28    1
     5     2     3    1
     6     2     4    1
     7     2    29    1
     8     3    30    1
     9     3    31    1
    10     3    32    1
    11     4     5   am
    12     4    33    1
    13     5     6    2
    14     5     7    2
    15     5     8    1
    16     8     9    1
    17     8    34    1
    18     8    35    1
    19     9    10    1
    20     9    36    1
    21     9    37    1
    22    10    11   am
    23    10    38    1
    24    11    12    2
    25    11    13    1
    26    13    25   ar
    27    13    14   ar
    28    14    15   ar
    29    14    39    1
    30    15    16   ar
    31    15    40    1
    32    16    17   ar
    33    16    41    1
    34    17    18    1
    35    17    25   ar
    36    18    19    2
    37    18    20    2
    38    18    21   am
    39    21    22    1
    40    21    42    1
    41    22    24    1
    42    22    23    1
    43    22    43    1
    44    23    24    1
    45    23    44    1
    46    23    45    1
    47    24    46    1
    48    24    47    1
    49    25    48    1
@<TRIPOS>SUBSTRUCTURE
     1 ZINC000621594459        1 TEMP              0 ****  ****    0 ROOT


##########                                Name:    ZINC001411334959
##########                DOCK_Rotatable_Bonds:                   9
##########                         Heavy_Atoms:                  24
##########                    Molecular_Weight:              339.37
##########                DOCK_Rotatable_Bonds:                   9
##########                       Formal_Charge:           0.0199995
##########                     HBond_Acceptors:                   9
##########                        HBond_Donors:                   3
##########                         Heavy_Atoms:                  24
##########                          Grid_Score:          -35.781376
##########                     Grid_vdw_energy:          -33.346878
##########                      Grid_es_energy:           -2.434500
##########           Internal_energy_repulsive:           13.091831

@<TRIPOS>MOLECULE
ZINC001411334959
 46 48 1 0 0
SMALL
USER_CHARGES


@<TRIPOS>ATOM
      1 O1          0.7176    3.0074   45.5956 O.2     1  ZINC001411334959   -0.5400
      2 C2          1.2163    2.0776   46.1937 C.2     1  ZINC001411334959    0.5200
      3 C3          2.1999    1.1736   45.4961 C.3     1  ZINC001411334959   -0.1400
      4 C4          1.8439    1.0821   44.0109 C.3     1  ZINC001411334959   -0.0100
      5 C5          0.5153    0.3882   43.8545 C.2     1  ZINC001411334959    0.0100
      6 N6         -0.4980    0.4210   44.6901 N.2     1  ZINC001411334959   -0.2800
      7 N7         -1.4527   -0.2941   44.2093 N.pl3   1  ZINC001411334959   -0.2500
      8 N8         -1.1143   -0.8058   43.0792 N.2     1  ZINC001411334959   -0.2800
      9 C9          0.1066   -0.4169   42.7889 C.2     1  ZINC001411334959   -0.0200
     10 N10         0.8953    1.8561   47.4838 N.am    1  ZINC001411334959   -0.7200
     11 C11        -0.0608    2.7348   48.1619 C.3     1  ZINC001411334959    0.1200
     12 C12        -1.4244    2.0746   48.4258 C.3     1  ZINC001411334959   -0.1400
     13 C13        -1.4115    2.7773   49.7937 C.3     1  ZINC001411334959   -0.1200
     14 C14        -1.9437    1.9076   50.9344 C.3     1  ZINC001411334959    0.1300
     15 N15        -3.3495    2.2359   51.1838 N.am    1  ZINC001411334959   -0.7200
     16 C16        -4.3244    1.4702   50.6550 C.2     1  ZINC001411334959    0.5100
     17 O17        -4.0379    0.5085   49.9738 O.2     1  ZINC001411334959   -0.5100
     18 C18        -5.7705    1.8089   50.9100 C.3     1  ZINC001411334959    0.0700
     19 F19        -6.2213    2.7735   50.0024 F       1  ZINC001411334959   -0.1800
     20 C20        -6.6553    0.5338   50.8531 C.3     1  ZINC001411334959   -0.1600
     21 C21        -7.8151    0.9381   51.7977 C.3     1  ZINC001411334959    0.0500
     22 O22        -7.1981    1.7107   52.8397 O.3     1  ZINC001411334959   -0.3700
     23 C23        -5.9751    2.2849   52.3643 C.3     1  ZINC001411334959    0.0400
     24 C24         0.1226    2.7837   49.6880 C.3     1  ZINC001411334959   -0.1400
     25 H25         3.2060    1.5790   45.6042 H       1  ZINC001411334959    0.1000
     26 H26         2.1589    0.1796   45.9414 H       1  ZINC001411334959    0.1000
     27 H27         1.7815    2.0856   43.5898 H       1  ZINC001411334959    0.1000
     28 H28         2.6137    0.5155   43.4870 H       1  ZINC001411334959    0.0900
     29 H29        -2.3110   -0.4290   44.6405 H       1  ZINC001411334959    0.4700
     30 H30         0.6793   -0.6728   41.9097 H       1  ZINC001411334959    0.2000
     31 H31         1.2972    1.1147   47.9632 H       1  ZINC001411334959    0.4000
     32 H32        -0.1331    3.7191   47.6991 H       1  ZINC001411334959    0.1200
     33 H33        -2.2149    2.4251   47.7623 H       1  ZINC001411334959    0.0800
     34 H34        -1.3776    0.9877   48.4929 H       1  ZINC001411334959    0.0900
     35 H35        -1.8558    3.7725   49.7774 H       1  ZINC001411334959    0.1000
     36 H36        -1.8595    0.8562   50.6595 H       1  ZINC001411334959    0.0800
     37 H37        -1.3612    2.0951   51.8364 H       1  ZINC001411334959    0.0800
     38 H38        -3.5787    3.0044   51.7297 H       1  ZINC001411334959    0.4100
     39 H39        -7.0179    0.3521   49.8414 H       1  ZINC001411334959    0.1000
     40 H40        -6.1193   -0.3337   51.2381 H       1  ZINC001411334959    0.1100
     41 H41        -8.5467    1.5424   51.2614 H       1  ZINC001411334959    0.0700
     42 H42        -8.2898    0.0502   52.2154 H       1  ZINC001411334959    0.1000
     43 H43        -5.1434    1.9490   52.9838 H       1  ZINC001411334959    0.0900
     44 H44        -6.0422    3.3725   52.3914 H       1  ZINC001411334959    0.0900
     45 H45         0.5924    1.8906   50.1000 H       1  ZINC001411334959    0.0900
     46 H46         0.5809    3.7065   50.0434 H       1  ZINC001411334959    0.0800
@<TRIPOS>BOND
     1     1     2    2
     2     2     3    1
     3     2    10   am
     4     3     4    1
     5     3    25    1
     6     3    26    1
     7     4     5    1
     8     4    27    1
     9     4    28    1
    10     5     9    1
    11     5     6    2
    12     6     7    1
    13     7     8    1
    14     7    29    1
    15     8     9    2
    16     9    30    1
    17    10    11    1
    18    10    31    1
    19    11    24    1
    20    11    12    1
    21    11    32    1
    22    12    13    1
    23    12    33    1
    24    12    34    1
    25    13    14    1
    26    13    24    1
    27    13    35    1
    28    14    15    1
    29    14    36    1
    30    14    37    1
    31    15    16   am
    32    15    38    1
    33    16    17    2
    34    16    18    1
    35    18    23    1
    36    18    19    1
    37    18    20    1
    38    20    21    1
    39    20    39    1
    40    20    40    1
    41    21    22    1
    42    21    41    1
    43    21    42    1
    44    22    23    1
    45    23    43    1
    46    23    44    1
    47    24    45    1
    48    24    46    1
@<TRIPOS>SUBSTRUCTURE
     1 ZINC001411334959        1 TEMP              0 ****  ****    0 ROOT


##########                                Name:    ZINC001090961577
##########                DOCK_Rotatable_Bonds:                   9
##########                         Heavy_Atoms:                  24
##########                    Molecular_Weight:             352.458
##########                DOCK_Rotatable_Bonds:                   9
##########                       Formal_Charge:                0.02
##########                     HBond_Acceptors:                   8
##########                        HBond_Donors:                   1
##########                         Heavy_Atoms:                  24
##########                          Grid_Score:          -35.776054
##########                     Grid_vdw_energy:          -34.101826
##########                      Grid_es_energy:           -1.674229
##########           Internal_energy_repulsive:            9.388529

@<TRIPOS>MOLECULE
ZINC001090961577
 48 49 1 0 0
SMALL
USER_CHARGES


@<TRIPOS>ATOM
      1 C1          3.7089    0.7234   44.6537 C.3     1  ZINC001090961577   -0.1400
      2 C2          2.3151    0.8092   45.2790 C.3     1  ZINC001090961577   -0.0900
      3 S3          1.0692    0.9242   43.9656 S.3     1  ZINC001090961577   -0.2700
      4 C4         -0.4885    1.0311   44.8889 C.3     1  ZINC001090961577   -0.0700
      5 C5         -0.8231    2.4999   45.1564 C.3     1  ZINC001090961577   -0.1200
      6 C6          0.0071    3.0024   46.3093 C.2     1  ZINC001090961577    0.5400
      7 O7          0.9359    3.7551   46.1051 O.2     1  ZINC001090961577   -0.5300
      8 N8         -0.2825    2.6153   47.5674 N.am    1  ZINC001090961577   -0.6200
      9 C9          0.4416    3.0273   48.7788 C.3     1  ZINC001090961577    0.1100
     10 C10        -0.2602    2.3609   49.9810 C.3     1  ZINC001090961577   -0.1100
     11 H11         0.2459    1.4364   50.2590 H       1  ZINC001090961577    0.0900
     12 C12        -0.3228    3.3204   51.1711 C.3     1  ZINC001090961577   -0.1400
     13 C13        -1.6816    2.0655   49.4336 C.3     1  ZINC001090961577    0.1500
     14 H14        -2.3171    2.9486   49.4999 H       1  ZINC001090961577    0.1200
     15 N15        -2.2888    0.9313   50.1342 N.pl3   1  ZINC001090961577   -0.6700
     16 C16        -3.6015    1.0010   50.5511 C.ar    1  ZINC001090961577    0.5900
     17 N17        -3.9495    1.9318   51.4301 N.ar    1  ZINC001090961577   -0.5700
     18 C18        -5.1950    2.0318   51.8541 C.ar    1  ZINC001090961577    0.2700
     19 C19        -6.1543    1.1363   51.3619 C.ar    1  ZINC001090961577   -0.3000
     20 C20        -7.5577    1.2111   51.8072 C.2     1  ZINC001090961577    0.5300
     21 O21        -8.2783    0.2375   51.7111 O.2     1  ZINC001090961577   -0.5100
     22 O22        -8.0413    2.3590   52.3209 O.3     1  ZINC001090961577   -0.3600
     23 C23        -9.4644    2.4057   52.6061 C.3     1  ZINC001090961577    0.0400
     24 C24        -5.7446    0.1683   50.4348 C.ar    1  ZINC001090961577    0.2600
     25 N25        -4.4806    0.1384   50.0574 N.ar    1  ZINC001090961577   -0.5700
     26 C26        -1.3818    1.7136   47.9574 C.3     1  ZINC001090961577    0.0900
     27 H27         4.4576    0.6544   45.4429 H       1  ZINC001090961577    0.0700
     28 H28         3.7682   -0.1602   44.0183 H       1  ZINC001090961577    0.0700
     29 H29         3.8938    1.6149   44.0544 H       1  ZINC001090961577    0.0700
     30 H30         2.1302   -0.0823   45.8782 H       1  ZINC001090961577    0.0800
     31 H31         2.2558    1.6929   45.9144 H       1  ZINC001090961577    0.0800
     32 H32        -1.2889    0.5766   44.3051 H       1  ZINC001090961577    0.0900
     33 H33        -0.3857    0.5034   45.8372 H       1  ZINC001090961577    0.0900
     34 H34        -0.6042    3.0903   44.2666 H       1  ZINC001090961577    0.1000
     35 H35        -1.8808    2.5926   45.4027 H       1  ZINC001090961577    0.1000
     36 H36         1.4777    2.6937   48.7228 H       1  ZINC001090961577    0.0800
     37 H37         0.4041    4.1118   48.8822 H       1  ZINC001090961577    0.0800
     38 H38        -0.8579    4.2246   50.8812 H       1  ZINC001090961577    0.0600
     39 H39        -0.8442    2.8392   51.9986 H       1  ZINC001090961577    0.0600
     40 H40         0.6891    3.5807   51.4815 H       1  ZINC001090961577    0.0700
     41 H41        -1.7676    0.1311   50.3048 H       1  ZINC001090961577    0.4200
     42 H42        -5.4709    2.7919   52.5701 H       1  ZINC001090961577    0.1800
     43 H43        -9.7212    3.3833   53.0144 H       1  ZINC001090961577    0.1100
     44 H44       -10.0249    2.2372   51.6867 H       1  ZINC001090961577    0.0700
     45 H45        -9.7150    1.6317   53.3315 H       1  ZINC001090961577    0.0700
     46 H46        -6.4537   -0.5398   50.0321 H       1  ZINC001090961577    0.1800
     47 H47        -2.2611    1.8924   47.3386 H       1  ZINC001090961577    0.0900
     48 H48        -1.0618    0.6751   47.8724 H       1  ZINC001090961577    0.0800
@<TRIPOS>BOND
     1     1     2    1
     2     1    27    1
     3     1    28    1
     4     1    29    1
     5     2     3    1
     6     2    30    1
     7     2    31    1
     8     3     4    1
     9     4     5    1
    10     4    32    1
    11     4    33    1
    12     5     6    1
    13     5    34    1
    14     5    35    1
    15     6     7    2
    16     6     8   am
    17     8    26    1
    18     8     9    1
    19     9    10    1
    20     9    36    1
    21     9    37    1
    22    10    11    1
    23    10    12    1
    24    10    13    1
    25    12    38    1
    26    12    39    1
    27    12    40    1
    28    13    14    1
    29    13    15    1
    30    13    26    1
    31    15    16    1
    32    15    41    1
    33    16    25   ar
    34    16    17   ar
    35    17    18   ar
    36    18    19   ar
    37    18    42    1
    38    19    20    1
    39    19    24   ar
    40    20    21    2
    41    20    22    1
    42    22    23    1
    43    23    43    1
    44    23    44    1
    45    23    45    1
    46    24    25   ar
    47    24    46    1
    48    26    47    1
    49    26    48    1
@<TRIPOS>SUBSTRUCTURE
     1 ZINC001090961577        1 TEMP              0 ****  ****    0 ROOT


##########                                Name:    ZINC000770850676
##########                DOCK_Rotatable_Bonds:                  13
##########                         Heavy_Atoms:                  30
##########                    Molecular_Weight:             412.486
##########                DOCK_Rotatable_Bonds:                  13
##########                       Formal_Charge:          -0.0299994
##########                     HBond_Acceptors:                   7
##########                        HBond_Donors:                   3
##########                         Heavy_Atoms:                  30
##########                          Grid_Score:          -35.739285
##########                     Grid_vdw_energy:          -35.353580
##########                      Grid_es_energy:           -0.385704
##########           Internal_energy_repulsive:           12.479038

@<TRIPOS>MOLECULE
ZINC000770850676
 58 60 1 0 0
SMALL
USER_CHARGES


@<TRIPOS>ATOM
      1 O1          1.6322    2.9074   48.3156 O.2     1  ZINC000770850676   -0.5300
      2 C2          1.7544    1.7355   48.0282 C.2     1  ZINC000770850676    0.5100
      3 N3          2.8788    1.0728   48.3645 N.am    1  ZINC000770850676   -0.7000
      4 C4          3.9559    1.7697   49.0718 C.3     1  ZINC000770850676    0.1600
      5 H5          3.5281    2.5210   49.7356 H       1  ZINC000770850676    0.1000
      6 C6          4.8757    2.4507   48.0564 C.3     1  ZINC000770850676    0.0600
      7 O7          5.4078    1.4705   47.1631 O.3     1  ZINC000770850676   -0.5700
      8 C8          4.7615    0.7620   49.8942 C.3     1  ZINC000770850676   -0.1500
      9 C9          3.8826    0.1972   51.0120 C.3     1  ZINC000770850676    0.1500
     10 H10         2.9172   -0.0979   50.6009 H       1  ZINC000770850676    0.1100
     11 O11         4.5220   -0.9418   51.5913 O.3     1  ZINC000770850676   -0.5400
     12 C12         3.6773    1.2503   52.0702 C.ar    1  ZINC000770850676   -0.1200
     13 C13         2.5565    2.0588   52.0326 C.ar    1  ZINC000770850676   -0.1100
     14 C14         2.3681    3.0247   53.0033 C.ar    1  ZINC000770850676   -0.1200
     15 C15         3.3001    3.1820   54.0119 C.ar    1  ZINC000770850676   -0.1200
     16 C16         4.4204    2.3729   54.0502 C.ar    1  ZINC000770850676   -0.1200
     17 C17         4.6067    1.4041   53.0819 C.ar    1  ZINC000770850676   -0.1100
     18 C18         0.6463    1.0185   47.3005 C.3     1  ZINC000770850676    0.1400
     19 H19         0.7423   -0.0573   47.4470 H       1  ZINC000770850676    0.1000
     20 C20         0.7066    1.3506   45.7947 C.3     1  ZINC000770850676   -0.1200
     21 C21        -0.7905    1.4689   45.4047 C.3     1  ZINC000770850676   -0.1300
     22 C22        -1.3957    2.1017   46.6826 C.3     1  ZINC000770850676    0.1000
     23 N23        -0.6583    1.4769   47.8000 N.am    1  ZINC000770850676   -0.5900
     24 C24        -1.1073    1.3510   49.0646 C.2     1  ZINC000770850676    0.6700
     25 O25        -0.4115    0.8180   49.9061 O.2     1  ZINC000770850676   -0.5600
     26 O26        -2.3268    1.8158   49.3952 O.3     1  ZINC000770850676   -0.3600
     27 C27        -2.8166    1.4947   50.7239 C.3     1  ZINC000770850676    0.1300
     28 C28        -4.3089    1.6989   50.7720 C.ar    1  ZINC000770850676   -0.1000
     29 C29        -4.8267    2.9433   51.0788 C.ar    1  ZINC000770850676   -0.0900
     30 C30        -6.1956    3.1307   51.1230 C.ar    1  ZINC000770850676   -0.1200
     31 C31        -7.0467    2.0736   50.8599 C.ar    1  ZINC000770850676   -0.1100
     32 C32        -6.5289    0.8294   50.5523 C.ar    1  ZINC000770850676   -0.1200
     33 C33        -5.1600    0.6431   50.5039 C.ar    1  ZINC000770850676   -0.0900
     34 H34         2.9749    0.1345   48.1381 H       1  ZINC000770850676    0.4000
     35 H35         4.3081    3.1888   47.4897 H       1  ZINC000770850676    0.0500
     36 H36         5.6930    2.9457   48.5812 H       1  ZINC000770850676    0.0500
     37 H37         5.9194    1.8416   46.4313 H       1  ZINC000770850676    0.3800
     38 H38         5.0947   -0.0504   49.2484 H       1  ZINC000770850676    0.0800
     39 H39         5.6285    1.2588   50.3295 H       1  ZINC000770850676    0.0900
     40 H40         3.9468   -1.4664   52.1650 H       1  ZINC000770850676    0.3700
     41 H41         1.8283    1.9358   51.2445 H       1  ZINC000770850676    0.1200
     42 H42         1.4929    3.6568   52.9734 H       1  ZINC000770850676    0.1200
     43 H43         3.1534    3.9371   54.7699 H       1  ZINC000770850676    0.1200
     44 H44         5.1488    2.4960   54.8380 H       1  ZINC000770850676    0.1200
     45 H45         5.4819    0.7721   53.1117 H       1  ZINC000770850676    0.1200
     46 H46         1.2242    2.2954   45.6285 H       1  ZINC000770850676    0.0800
     47 H47         1.1869    0.5440   45.2407 H       1  ZINC000770850676    0.1000
     48 H48        -0.9195    2.1259   44.5446 H       1  ZINC000770850676    0.0900
     49 H49        -1.2229    0.4869   45.2126 H       1  ZINC000770850676    0.0800
     50 H50        -1.2416    3.1808   46.6811 H       1  ZINC000770850676    0.0700
     51 H51        -2.4583    1.8695   46.7542 H       1  ZINC000770850676    0.0900
     52 H52        -2.5845    0.4550   50.9552 H       1  ZINC000770850676    0.0800
     53 H53        -2.3370    2.1454   51.4551 H       1  ZINC000770850676    0.0800
     54 H54        -4.1617    3.7692   51.2842 H       1  ZINC000770850676    0.1200
     55 H55        -6.6001    4.1028   51.3633 H       1  ZINC000770850676    0.1300
     56 H56        -8.1162    2.2199   50.8952 H       1  ZINC000770850676    0.1300
     57 H57        -7.1939    0.0035   50.3472 H       1  ZINC000770850676    0.1300
     58 H58        -4.7555   -0.3290   50.2636 H       1  ZINC000770850676    0.1200
@<TRIPOS>BOND
     1     1     2    2
     2     2     3   am
     3     2    18    1
     4     3     4    1
     5     3    34    1
     6     4     5    1
     7     4     6    1
     8     4     8    1
     9     6     7    1
    10     6    35    1
    11     6    36    1
    12     7    37    1
    13     8     9    1
    14     8    38    1
    15     8    39    1
    16     9    10    1
    17     9    11    1
    18     9    12    1
    19    11    40    1
    20    12    17   ar
    21    12    13   ar
    22    13    14   ar
    23    13    41    1
    24    14    15   ar
    25    14    42    1
    26    15    16   ar
    27    15    43    1
    28    16    17   ar
    29    16    44    1
    30    17    45    1
    31    18    19    1
    32    18    23    1
    33    18    20    1
    34    20    21    1
    35    20    46    1
    36    20    47    1
    37    21    22    1
    38    21    48    1
    39    21    49    1
    40    22    23    1
    41    22    50    1
    42    22    51    1
    43    23    24   am
    44    24    25    2
    45    24    26    1
    46    26    27    1
    47    27    28    1
    48    27    52    1
    49    27    53    1
    50    28    33   ar
    51    28    29   ar
    52    29    30   ar
    53    29    54    1
    54    30    31   ar
    55    30    55    1
    56    31    32   ar
    57    31    56    1
    58    32    33   ar
    59    32    57    1
    60    33    58    1
@<TRIPOS>SUBSTRUCTURE
     1 ZINC000770850676        1 TEMP              0 ****  ****    0 ROOT


##########                                Name:    ZINC000011620562
##########                DOCK_Rotatable_Bonds:                   9
##########                         Heavy_Atoms:                  29
##########                    Molecular_Weight:             417.448
##########                DOCK_Rotatable_Bonds:                   9
##########                       Formal_Charge:           0.0299999
##########                     HBond_Acceptors:                  12
##########                        HBond_Donors:                   1
##########                         Heavy_Atoms:                  29
##########                          Grid_Score:          -35.669682
##########                     Grid_vdw_energy:          -32.461304
##########                      Grid_es_energy:           -3.208379
##########           Internal_energy_repulsive:           13.382608

@<TRIPOS>MOLECULE
ZINC000011620562
 48 50 1 0 0
SMALL
USER_CHARGES


@<TRIPOS>ATOM
      1 C1         -6.6790    8.1261   45.7733 C.3     1  ZINC000011620562    0.0400
      2 O2         -6.4482    8.6147   47.1210 O.3     1  ZINC000011620562   -0.3500
      3 C3         -7.3517    8.2772   48.0547 C.2     1  ZINC000011620562    0.4600
      4 O4         -7.2455    8.7037   49.1801 O.2     1  ZINC000011620562   -0.5000
      5 C5         -8.4984    7.3664   47.6991 C.3     1  ZINC000011620562    0.1300
      6 N6         -8.1447    5.9839   48.0301 N.am    1  ZINC000011620562   -0.7200
      7 C7         -8.4627    5.4777   49.2382 C.2     1  ZINC000011620562    0.5400
      8 O8         -9.0431    6.1663   50.0505 O.2     1  ZINC000011620562   -0.5200
      9 C9         -8.0972    4.0561   49.5794 C.3     1  ZINC000011620562   -0.1600
     10 S10        -6.4242    4.0122   50.2686 S.3     1  ZINC000011620562    0.1400
     11 C11        -6.2275    2.2744   50.4838 C.2     1  ZINC000011620562    0.2100
     12 N12        -7.1696    1.3617   50.3789 N.2     1  ZINC000011620562   -0.3400
     13 N13        -6.6878    0.1912   50.5958 N.2     1  ZINC000011620562   -0.0300
     14 N14        -5.4264    0.2651   50.8508 N.2     1  ZINC000011620562   -0.0800
     15 N15        -5.0759    1.6249   50.7828 N.pl3   1  ZINC000011620562   -0.2600
     16 C16        -3.8032    2.1913   50.9884 C.2     1  ZINC000011620562   -0.1300
     17 C17        -3.4694    3.0629   51.9670 C.2     1  ZINC000011620562    0.2500
     18 C18        -4.3979    3.5965   53.0271 C.3     1  ZINC000011620562   -0.1100
     19 N19        -2.1442    3.3777   51.8302 N.pl3   1  ZINC000011620562   -0.3700
     20 C20        -1.3856    4.2903   52.6892 C.3     1  ZINC000011620562    0.0900
     21 N21        -1.6382    2.6766   50.7280 N.am    1  ZINC000011620562   -0.3600
     22 C22        -0.3234    2.7244   50.2540 C.ar    1  ZINC000011620562    0.1400
     23 C23        -0.0289    3.4189   49.0876 C.ar    1  ZINC000011620562   -0.1300
     24 C24         1.2706    3.4646   48.6225 C.ar    1  ZINC000011620562   -0.1000
     25 C25         2.2781    2.8200   49.3166 C.ar    1  ZINC000011620562   -0.1100
     26 C26         1.9883    2.1274   50.4778 C.ar    1  ZINC000011620562   -0.1000
     27 C27         0.6917    2.0826   50.9515 C.ar    1  ZINC000011620562   -0.1000
     28 C28        -2.6438    1.9432   50.2089 C.2     1  ZINC000011620562    0.5500
     29 O29        -2.5718    1.2070   49.2417 O.2     1  ZINC000011620562   -0.5000
     30 H30        -7.6335    8.5050   45.4079 H       1  ZINC000011620562    0.0700
     31 H31        -5.8773    8.4700   45.1198 H       1  ZINC000011620562    0.1100
     32 H32        -6.6995    7.0362   45.7806 H       1  ZINC000011620562    0.0700
     33 H33        -9.3839    7.6599   48.2630 H       1  ZINC000011620562    0.1200
     34 H34        -8.7056    7.4428   46.6316 H       1  ZINC000011620562    0.1200
     35 H35        -7.6816    5.4328   47.3800 H       1  ZINC000011620562    0.4200
     36 H36        -8.8027    3.6656   50.3129 H       1  ZINC000011620562    0.1400
     37 H37        -8.1349    3.4448   48.6777 H       1  ZINC000011620562    0.1400
     38 H38        -5.3918    3.1714   52.8872 H       1  ZINC000011620562    0.1000
     39 H39        -4.0206    3.3220   54.0122 H       1  ZINC000011620562    0.1000
     40 H40        -4.4528    4.6824   52.9488 H       1  ZINC000011620562    0.1000
     41 H41        -2.0485    4.7153   53.4428 H       1  ZINC000011620562    0.1100
     42 H42        -0.5811    3.7427   53.1802 H       1  ZINC000011620562    0.0900
     43 H43        -0.9627    5.0920   52.0837 H       1  ZINC000011620562    0.0900
     44 H44        -0.8155    3.9222   48.5449 H       1  ZINC000011620562    0.1300
     45 H45         1.5002    4.0041   47.7154 H       1  ZINC000011620562    0.1300
     46 H46         3.2936    2.8574   48.9506 H       1  ZINC000011620562    0.1300
     47 H47         2.7773    1.6245   51.0171 H       1  ZINC000011620562    0.1400
     48 H48         0.4661    1.5418   51.8587 H       1  ZINC000011620562    0.1400
@<TRIPOS>BOND
     1     1     2    1
     2     1    30    1
     3     1    31    1
     4     1    32    1
     5     2     3    1
     6     3     4    2
     7     3     5    1
     8     5     6    1
     9     5    33    1
    10     5    34    1
    11     6     7   am
    12     6    35    1
    13     7     8    2
    14     7     9    1
    15     9    10    1
    16     9    36    1
    17     9    37    1
    18    10    11    1
    19    11    15    1
    20    11    12    2
    21    12    13    1
    22    13    14    2
    23    14    15    1
    24    15    16    1
    25    16    28    1
    26    16    17    2
    27    17    18    1
    28    17    19    1
    29    18    38    1
    30    18    39    1
    31    18    40    1
    32    19    20    1
    33    19    21    1
    34    20    41    1
    35    20    42    1
    36    20    43    1
    37    21    22    1
    38    21    28   am
    39    22    27   ar
    40    22    23   ar
    41    23    24   ar
    42    23    44    1
    43    24    25   ar
    44    24    45    1
    45    25    26   ar
    46    25    46    1
    47    26    27   ar
    48    26    47    1
    49    27    48    1
    50    28    29    2
@<TRIPOS>SUBSTRUCTURE
     1 ZINC000011620562        1 TEMP              0 ****  ****    0 ROOT


##########                                Name:    ZINC000892249927
##########                DOCK_Rotatable_Bonds:                   8
##########                         Heavy_Atoms:                  27
##########                    Molecular_Weight:             364.487
##########                DOCK_Rotatable_Bonds:                   8
##########                       Formal_Charge:          -0.0300015
##########                     HBond_Acceptors:                   4
##########                        HBond_Donors:                   1
##########                         Heavy_Atoms:                  27
##########                          Grid_Score:          -35.598015
##########                     Grid_vdw_energy:          -34.253010
##########                      Grid_es_energy:           -1.345006
##########           Internal_energy_repulsive:           15.060837

@<TRIPOS>MOLECULE
ZINC000892249927
 55 58 1 0 0
SMALL
USER_CHARGES


@<TRIPOS>ATOM
      1 O1         -0.3714    2.0257   51.1790 O.2     1  ZINC000892249927   -0.5300
      2 C2         -1.2804    1.8864   50.3882 C.2     1  ZINC000892249927    0.5100
      3 C3         -2.7091    1.9833   50.8578 C.3     1  ZINC000892249927   -0.1400
      4 C4         -3.5704    0.9864   50.0797 C.3     1  ZINC000892249927   -0.1000
      5 C5         -4.9374    0.8580   50.7546 C.3     1  ZINC000892249927   -0.0800
      6 C6         -5.5962    2.2120   50.8165 C.ar    1  ZINC000892249927   -0.0900
      7 C7         -6.4458    2.6142   49.8031 C.ar    1  ZINC000892249927   -0.1100
      8 C8         -7.0501    3.8563   49.8599 C.ar    1  ZINC000892249927   -0.1100
      9 C9         -6.8051    4.6958   50.9305 C.ar    1  ZINC000892249927   -0.0500
     10 C10        -7.4635    6.0499   50.9921 C.3     1  ZINC000892249927   -0.1200
     11 C11        -7.5734    6.8420   49.6877 C.3     1  ZINC000892249927   -0.1800
     12 C12        -8.8213    6.2072   50.3049 C.3     1  ZINC000892249927   -0.1700
     13 C13        -5.9566    4.2929   51.9446 C.ar    1  ZINC000892249927   -0.1200
     14 C14        -5.3554    3.0493   51.8897 C.ar    1  ZINC000892249927   -0.1100
     15 N15        -1.0128    1.6507   49.0885 N.am    1  ZINC000892249927   -0.7300
     16 C16         0.3761    1.5566   48.6320 C.3     1  ZINC000892249927    0.1400
     17 H17         0.9789    1.0666   49.3966 H       1  ZINC000892249927    0.1000
     18 C18         0.9254    2.9620   48.3690 C.3     1  ZINC000892249927   -0.1700
     19 C19         0.1209    3.6130   47.2409 C.3     1  ZINC000892249927    0.0600
     20 O20         0.1920    2.7933   46.0725 O.3     1  ZINC000892249927   -0.3700
     21 C21        -0.3508    1.4827   46.2454 C.3     1  ZINC000892249927    0.1400
     22 H22        -1.3972    1.5587   46.5408 H       1  ZINC000892249927    0.0700
     23 C23        -0.2486    0.7214   44.9488 C.ar    1  ZINC000892249927   -0.1400
     24 C24         0.9204    0.7565   44.2046 C.ar    1  ZINC000892249927   -0.0700
     25 C25         0.9693    0.0402   43.0181 C.ar    1  ZINC000892249927   -0.1700
     26 C26        -0.1410   -0.6796   42.6200 C.ar    1  ZINC000892249927    0.1000
     27 N27        -1.2369   -0.6901   43.3537 N.ar    1  ZINC000892249927   -0.4900
     28 C28        -1.3172   -0.0254   44.4896 C.ar    1  ZINC000892249927    0.1300
     29 C29         0.4351    0.7442   47.3347 C.3     1  ZINC000892249927   -0.1500
     30 H30        -2.7582    1.7526   51.9221 H       1  ZINC000892249927    0.0900
     31 H31        -3.0798    2.9940   50.6876 H       1  ZINC000892249927    0.0900
     32 H32        -3.7017    1.3404   49.0572 H       1  ZINC000892249927    0.0700
     33 H33        -3.0785    0.0137   50.0670 H       1  ZINC000892249927    0.0700
     34 H34        -5.5635    0.1753   50.1803 H       1  ZINC000892249927    0.0700
     35 H35        -4.8087    0.4701   51.7651 H       1  ZINC000892249927    0.0700
     36 H36        -6.6372    1.9584   48.9666 H       1  ZINC000892249927    0.1200
     37 H37        -7.7134    4.1709   49.0676 H       1  ZINC000892249927    0.1200
     38 H38        -7.2960    6.6127   51.9105 H       1  ZINC000892249927    0.1100
     39 H39        -7.4782    7.9262   49.7478 H       1  ZINC000892249927    0.1000
     40 H40        -7.1696    6.3836   48.7850 H       1  ZINC000892249927    0.1000
     41 H41        -9.2384    5.3313   49.8081 H       1  ZINC000892249927    0.1000
     42 H42        -9.5470    6.8738   50.7708 H       1  ZINC000892249927    0.1000
     43 H43        -5.7655    4.9486   52.7813 H       1  ZINC000892249927    0.1200
     44 H44        -4.6924    2.7346   52.6821 H       1  ZINC000892249927    0.1200
     45 H45        -1.7398    1.5432   48.4554 H       1  ZINC000892249927    0.4000
     46 H46         0.8362    3.5632   49.2739 H       1  ZINC000892249927    0.0800
     47 H47         1.9735    2.8948   48.0771 H       1  ZINC000892249927    0.0800
     48 H48        -0.9193    3.7169   47.5493 H       1  ZINC000892249927    0.0500
     49 H49         0.5348    4.5970   47.0203 H       1  ZINC000892249927    0.1000
     50 H50         1.7727    1.3284   44.5405 H       1  ZINC000892249927    0.1300
     51 H51         1.8637    0.0452   42.4128 H       1  ZINC000892249927    0.1400
     52 H52        -0.1112   -1.2398   41.6971 H       1  ZINC000892249927    0.1600
     53 H53        -2.2317   -0.0577   45.0634 H       1  ZINC000892249927    0.1600
     54 H54         1.4733    0.6317   47.0221 H       1  ZINC000892249927    0.0900
     55 H55        -0.0055   -0.2392   47.4983 H       1  ZINC000892249927    0.0800
@<TRIPOS>BOND
     1     1     2    2
     2     2     3    1
     3     2    15   am
     4     3     4    1
     5     3    30    1
     6     3    31    1
     7     4     5    1
     8     4    32    1
     9     4    33    1
    10     5     6    1
    11     5    34    1
    12     5    35    1
    13     6    14   ar
    14     6     7   ar
    15     7     8   ar
    16     7    36    1
    17     8     9   ar
    18     8    37    1
    19     9    10    1
    20     9    13   ar
    21    10    12    1
    22    10    11    1
    23    10    38    1
    24    11    12    1
    25    11    39    1
    26    11    40    1
    27    12    41    1
    28    12    42    1
    29    13    14   ar
    30    13    43    1
    31    14    44    1
    32    15    16    1
    33    15    45    1
    34    16    17    1
    35    16    29    1
    36    16    18    1
    37    18    19    1
    38    18    46    1
    39    18    47    1
    40    19    20    1
    41    19    48    1
    42    19    49    1
    43    20    21    1
    44    21    22    1
    45    21    23    1
    46    21    29    1
    47    23    28   ar
    48    23    24   ar
    49    24    25   ar
    50    24    50    1
    51    25    26   ar
    52    25    51    1
    53    26    27   ar
    54    26    52    1
    55    27    28   ar
    56    28    53    1
    57    29    54    1
    58    29    55    1
@<TRIPOS>SUBSTRUCTURE
     1 ZINC000892249927        1 TEMP              0 ****  ****    0 ROOT


##########                                Name:    ZINC000482846390
##########                DOCK_Rotatable_Bonds:                   9
##########                         Heavy_Atoms:                  30
##########                    Molecular_Weight:             420.469
##########                DOCK_Rotatable_Bonds:                   9
##########                       Formal_Charge:          -0.0100011
##########                     HBond_Acceptors:                  11
##########                        HBond_Donors:                   2
##########                         Heavy_Atoms:                  30
##########                          Grid_Score:          -35.591709
##########                     Grid_vdw_energy:          -30.295826
##########                      Grid_es_energy:           -5.295885
##########           Internal_energy_repulsive:           25.368704

@<TRIPOS>MOLECULE
ZINC000482846390
 58 60 1 0 0
SMALL
USER_CHARGES


@<TRIPOS>ATOM
      1 C1         -0.5658    2.2766   57.9464 C.3     1  ZINC000482846390   -0.1000
      2 C2         -1.1921    2.9691   56.7636 C.2     1  ZINC000482846390    0.0900
      3 C3         -2.2811    3.7718   56.7937 C.2     1  ZINC000482846390   -0.2700
      4 C4         -2.5302    4.2085   55.4885 C.2     1  ZINC000482846390    0.0700
      5 C5         -3.6492    5.1228   55.0610 C.3     1  ZINC000482846390   -0.0500
      6 C6         -4.8602    4.2862   54.6434 C.3     1  ZINC000482846390    0.1500
      7 H7         -5.6323    4.9410   54.2394 H       1  ZINC000482846390    0.1000
      8 C8         -5.4097    3.5410   55.8614 C.3     1  ZINC000482846390   -0.1700
      9 N9         -4.4560    3.3187   53.6203 N.am    1  ZINC000482846390   -0.6800
     10 C10        -4.6743    3.5850   52.3173 C.2     1  ZINC000482846390    0.5100
     11 O11        -5.2043    4.6268   51.9915 O.2     1  ZINC000482846390   -0.5200
     12 C12        -4.2636    2.5971   51.2737 C.2     1  ZINC000482846390    0.5100
     13 O13        -4.9857    1.6583   51.0092 O.2     1  ZINC000482846390   -0.5100
     14 N14        -3.0914    2.7489   50.6263 N.am    1  ZINC000482846390   -0.5900
     15 C15        -2.2041    3.8777   50.9404 C.3     1  ZINC000482846390    0.0500
     16 C16        -0.8217    3.3261   51.3105 C.3     1  ZINC000482846390    0.1000
     17 N17        -0.4075    2.3657   50.2781 N.am    1  ZINC000482846390   -0.6000
     18 C18         0.7652    2.5171   49.6313 C.2     1  ZINC000482846390    0.5200
     19 O19         1.4897    3.4529   49.8996 O.2     1  ZINC000482846390   -0.5000
     20 C20         1.1733    1.5324   48.5837 C.2     1  ZINC000482846390    0.5200
     21 O21         1.7269    0.5010   48.9034 O.2     1  ZINC000482846390   -0.5000
     22 N22         0.9267    1.7902   47.2840 N.am    1  ZINC000482846390   -0.6000
     23 C23         1.3139    0.8332   46.2353 C.3     1  ZINC000482846390    0.0700
     24 C24         0.0976    0.5826   45.3367 C.3     1  ZINC000482846390    0.0500
     25 O25        -0.4246    1.8365   44.8906 O.3     1  ZINC000482846390   -0.3700
     26 C26        -0.9030    2.6786   45.9421 C.3     1  ZINC000482846390    0.0500
     27 C27         0.2570    3.0340   46.8723 C.3     1  ZINC000482846390    0.0700
     28 C28        -1.2947    1.2370   49.9639 C.3     1  ZINC000482846390    0.0900
     29 C29        -2.6745    1.7854   49.5978 C.3     1  ZINC000482846390    0.0900
     30 N30        -1.6233    3.6867   54.7029 N.2     1  ZINC000482846390   -0.2800
     31 N31        -0.7640    2.9046   55.4854 N.pl3   1  ZINC000482846390   -0.4700
     32 H32         0.1870    2.9271   58.3916 H       1  ZINC000482846390    0.0800
     33 H33        -1.3351    2.0523   58.6854 H       1  ZINC000482846390    0.0900
     34 H34        -0.0964    1.3493   57.6178 H       1  ZINC000482846390    0.0700
     35 H35        -2.8564    4.0294   57.6706 H       1  ZINC000482846390    0.1500
     36 H36        -3.9253    5.7722   55.8919 H       1  ZINC000482846390    0.0900
     37 H37        -3.3197    5.7310   54.2186 H       1  ZINC000482846390    0.1100
     38 H38        -5.7105    4.2608   56.6226 H       1  ZINC000482846390    0.0700
     39 H39        -6.2725    2.9449   55.5638 H       1  ZINC000482846390    0.0700
     40 H40        -4.6377    2.8861   56.2654 H       1  ZINC000482846390    0.0600
     41 H41        -4.0313    2.4864   53.8807 H       1  ZINC000482846390    0.4200
     42 H42        -2.1174    4.5281   50.0701 H       1  ZINC000482846390    0.0800
     43 H43        -2.6108    4.4397   51.7812 H       1  ZINC000482846390    0.1600
     44 H44        -0.1026    4.1439   51.3590 H       1  ZINC000482846390    0.1100
     45 H45        -0.8747    2.8245   52.2767 H       1  ZINC000482846390    0.0800
     46 H46         2.1290    1.2482   45.6425 H       1  ZINC000482846390    0.0900
     47 H47         1.6318   -0.1038   46.6925 H       1  ZINC000482846390    0.0900
     48 H48         0.3980   -0.0138   44.4753 H       1  ZINC000482846390    0.1100
     49 H49        -0.6680    0.0493   45.9004 H       1  ZINC000482846390    0.0600
     50 H50        -1.3224    3.5901   45.5162 H       1  ZINC000482846390    0.1100
     51 H51        -1.6722    2.1530   46.5081 H       1  ZINC000482846390    0.0600
     52 H52        -0.1232    3.5561   47.7503 H       1  ZINC000482846390    0.1100
     53 H53         0.9681    3.6704   46.3455 H       1  ZINC000482846390    0.0800
     54 H54        -0.8880    0.6750   49.1232 H       1  ZINC000482846390    0.0900
     55 H55        -1.3813    0.5865   50.8343 H       1  ZINC000482846390    0.0900
     56 H56        -3.3926    0.9667   49.5496 H       1  ZINC000482846390    0.1100
     57 H57        -2.6239    2.2882   48.6320 H       1  ZINC000482846390    0.0800
     58 H58         0.0002    2.4008   55.1643 H       1  ZINC000482846390    0.4400
@<TRIPOS>BOND
     1     1     2    1
     2     1    32    1
     3     1    33    1
     4     1    34    1
     5     2    31    1
     6     2     3    2
     7     3     4    1
     8     3    35    1
     9     4     5    1
    10     4    30    2
    11     5     6    1
    12     5    36    1
    13     5    37    1
    14     6     7    1
    15     6     8    1
    16     6     9    1
    17     8    38    1
    18     8    39    1
    19     8    40    1
    20     9    10   am
    21     9    41    1
    22    10    11    2
    23    10    12    1
    24    12    13    2
    25    12    14   am
    26    14    29    1
    27    14    15    1
    28    15    16    1
    29    15    42    1
    30    15    43    1
    31    16    17    1
    32    16    44    1
    33    16    45    1
    34    17    18   am
    35    17    28    1
    36    18    19    2
    37    18    20    1
    38    20    21    2
    39    20    22   am
    40    22    27    1
    41    22    23    1
    42    23    24    1
    43    23    46    1
    44    23    47    1
    45    24    25    1
    46    24    48    1
    47    24    49    1
    48    25    26    1
    49    26    27    1
    50    26    50    1
    51    26    51    1
    52    27    52    1
    53    27    53    1
    54    28    29    1
    55    28    54    1
    56    28    55    1
    57    29    56    1
    58    29    57    1
    59    30    31    1
    60    31    58    1
@<TRIPOS>SUBSTRUCTURE
     1 ZINC000482846390        1 TEMP              0 ****  ****    0 ROOT


##########                                Name:    ZINC000435005159
##########                DOCK_Rotatable_Bonds:                  12
##########                         Heavy_Atoms:                  30
##########                    Molecular_Weight:             401.508
##########                DOCK_Rotatable_Bonds:                  12
##########                       Formal_Charge:          -0.0399985
##########                     HBond_Acceptors:                   5
##########                        HBond_Donors:                   2
##########                         Heavy_Atoms:                  30
##########                          Grid_Score:          -35.574577
##########                     Grid_vdw_energy:          -33.541264
##########                      Grid_es_energy:           -2.033315
##########           Internal_energy_repulsive:           11.920070

@<TRIPOS>MOLECULE
ZINC000435005159
 57 59 1 0 0
SMALL
USER_CHARGES


@<TRIPOS>ATOM
      1 O1         -3.7955    0.0445   49.8962 O.2     1  ZINC000435005159   -0.5300
      2 C2         -3.9119    0.9318   50.7148 C.2     1  ZINC000435005159    0.5200
      3 C3         -5.1966    1.0794   51.4886 C.3     1  ZINC000435005159   -0.1400
      4 C4         -6.3542    1.3119   50.5155 C.3     1  ZINC000435005159   -0.1200
      5 C5         -7.2797    2.3950   51.0734 C.3     1  ZINC000435005159    0.1200
      6 N6         -7.3529    3.5101   50.1260 N.am    1  ZINC000435005159   -0.7200
      7 C7         -8.4133    4.3419   50.1449 C.2     1  ZINC000435005159    0.5600
      8 O8         -9.3095    4.1660   50.9471 O.2     1  ZINC000435005159   -0.5300
      9 C9         -8.4864    5.4682   49.1901 C.ar    1  ZINC000435005159   -0.1900
     10 C10        -7.4770    5.6625   48.2399 C.ar    1  ZINC000435005159   -0.0200
     11 C11        -7.5931    6.7316   47.3688 C.ar    1  ZINC000435005159   -0.1800
     12 C12        -8.6920    7.5662   47.4640 C.ar    1  ZINC000435005159    0.1200
     13 N13        -9.6282    7.3589   48.3705 N.ar    1  ZINC000435005159   -0.4900
     14 C14        -9.5657    6.3526   49.2173 C.ar    1  ZINC000435005159    0.1400
     15 N15        -2.8902    1.7824   50.9366 N.am    1  ZINC000435005159   -0.7300
     16 C16        -1.6413    1.6389   50.1845 C.3     1  ZINC000435005159    0.1900
     17 H17        -1.4132    0.5805   50.0571 H       1  ZINC000435005159    0.1000
     18 C18        -1.7945    2.2962   48.8113 C.3     1  ZINC000435005159   -0.1200
     19 C19        -0.8377    1.6328   47.8187 C.3     1  ZINC000435005159   -0.0800
     20 C20        -0.2896    2.6738   46.8770 C.ar    1  ZINC000435005159   -0.0800
     21 C21         0.7807    3.4595   47.2623 C.ar    1  ZINC000435005159   -0.1200
     22 C22         1.2835    4.4142   46.3983 C.ar    1  ZINC000435005159   -0.1200
     23 C23         0.7165    4.5832   45.1490 C.ar    1  ZINC000435005159   -0.1200
     24 C24        -0.3531    3.7970   44.7635 C.ar    1  ZINC000435005159   -0.1200
     25 C25        -0.8533    2.8392   45.6257 C.ar    1  ZINC000435005159   -0.1200
     26 C26        -0.5208    2.3069   50.9390 C.ar    1  ZINC000435005159   -0.1000
     27 C27         0.7489    1.7606   50.9174 C.ar    1  ZINC000435005159   -0.1100
     28 C28         1.7767    2.3733   51.6094 C.ar    1  ZINC000435005159   -0.1200
     29 C29         1.5351    3.5327   52.3227 C.ar    1  ZINC000435005159   -0.1200
     30 C30         0.2656    4.0793   52.3434 C.ar    1  ZINC000435005159   -0.1200
     31 C31        -0.7613    3.4690   51.6478 C.ar    1  ZINC000435005159   -0.1000
     32 H32        -5.3815    0.1714   52.0627 H       1  ZINC000435005159    0.1000
     33 H33        -5.1166    1.9285   52.1674 H       1  ZINC000435005159    0.1000
     34 H34        -5.9595    1.6324   49.5513 H       1  ZINC000435005159    0.0800
     35 H35        -6.9141    0.3853   50.3890 H       1  ZINC000435005159    0.0800
     36 H36        -8.2762    1.9796   51.2233 H       1  ZINC000435005159    0.0700
     37 H37        -6.8879    2.7525   52.0256 H       1  ZINC000435005159    0.0700
     38 H38        -6.6383    3.6498   49.4851 H       1  ZINC000435005159    0.4000
     39 H39        -6.6292    4.9953   48.1880 H       1  ZINC000435005159    0.1500
     40 H40        -6.8335    6.9127   46.6229 H       1  ZINC000435005159    0.1500
     41 H41        -8.7852    8.4012   46.7855 H       1  ZINC000435005159    0.1600
     42 H42       -10.3519    6.2156   49.9450 H       1  ZINC000435005159    0.1600
     43 H43        -2.9819    2.4896   51.5942 H       1  ZINC000435005159    0.4000
     44 H44        -2.8204    2.1755   48.4632 H       1  ZINC000435005159    0.0700
     45 H45        -1.5595    3.3578   48.8884 H       1  ZINC000435005159    0.0800
     46 H46        -0.0163    1.1661   48.3623 H       1  ZINC000435005159    0.0700
     47 H47        -1.3740    0.8739   47.2489 H       1  ZINC000435005159    0.0700
     48 H48         1.2236    3.3275   48.2384 H       1  ZINC000435005159    0.1200
     49 H49         2.1191    5.0286   46.6996 H       1  ZINC000435005159    0.1200
     50 H50         1.1089    5.3297   44.4744 H       1  ZINC000435005159    0.1200
     51 H51        -0.7964    3.9292   43.7875 H       1  ZINC000435005159    0.1200
     52 H52        -1.6889    2.2249   45.3244 H       1  ZINC000435005159    0.1200
     53 H53         0.9377    0.8549   50.3603 H       1  ZINC000435005159    0.1200
     54 H54         2.7685    1.9461   51.5933 H       1  ZINC000435005159    0.1200
     55 H55         2.3380    4.0109   52.8638 H       1  ZINC000435005159    0.1200
     56 H56         0.0767    4.9849   52.9008 H       1  ZINC000435005159    0.1200
     57 H57        -1.7530    3.8962   51.6640 H       1  ZINC000435005159    0.1200
@<TRIPOS>BOND
     1     1     2    2
     2     2     3    1
     3     2    15   am
     4     3     4    1
     5     3    32    1
     6     3    33    1
     7     4     5    1
     8     4    34    1
     9     4    35    1
    10     5     6    1
    11     5    36    1
    12     5    37    1
    13     6     7   am
    14     6    38    1
    15     7     8    2
    16     7     9    1
    17     9    14   ar
    18     9    10   ar
    19    10    11   ar
    20    10    39    1
    21    11    12   ar
    22    11    40    1
    23    12    13   ar
    24    12    41    1
    25    13    14   ar
    26    14    42    1
    27    15    16    1
    28    15    43    1
    29    16    17    1
    30    16    18    1
    31    16    26    1
    32    18    19    1
    33    18    44    1
    34    18    45    1
    35    19    20    1
    36    19    46    1
    37    19    47    1
    38    20    25   ar
    39    20    21   ar
    40    21    22   ar
    41    21    48    1
    42    22    23   ar
    43    22    49    1
    44    23    24   ar
    45    23    50    1
    46    24    25   ar
    47    24    51    1
    48    25    52    1
    49    26    31   ar
    50    26    27   ar
    51    27    28   ar
    52    27    53    1
    53    28    29   ar
    54    28    54    1
    55    29    30   ar
    56    29    55    1
    57    30    31   ar
    58    30    56    1
    59    31    57    1
@<TRIPOS>SUBSTRUCTURE
     1 ZINC000435005159        1 TEMP              0 ****  ****    0 ROOT


##########                                Name:    ZINC001362587626
##########                DOCK_Rotatable_Bonds:                   9
##########                         Heavy_Atoms:                  25
##########                    Molecular_Weight:             346.346
##########                DOCK_Rotatable_Bonds:                   9
##########                       Formal_Charge:        -4.02331e-07
##########                     HBond_Acceptors:                  10
##########                        HBond_Donors:                   2
##########                         Heavy_Atoms:                  25
##########                          Grid_Score:          -35.573627
##########                     Grid_vdw_energy:          -34.785828
##########                      Grid_es_energy:           -0.787799
##########           Internal_energy_repulsive:            5.878435

@<TRIPOS>MOLECULE
ZINC001362587626
 43 45 1 0 0
SMALL
USER_CHARGES


@<TRIPOS>ATOM
      1 C1          0.4156    1.8712   50.0089 C.3     1  ZINC001362587626   -0.1600
      2 C2         -0.4503    1.1042   49.0076 C.3     1  ZINC001362587626    0.1300
      3 H3         -0.2430    0.0373   49.0906 H       1  ZINC001362587626    0.1200
      4 N4         -0.1430    1.5572   47.6487 N.am    1  ZINC001362587626   -0.7100
      5 C5          0.8057    0.9280   46.9271 C.2     1  ZINC001362587626    0.5100
      6 O6          1.4037   -0.0142   47.4020 O.2     1  ZINC001362587626   -0.5000
      7 C7          1.1231    1.3951   45.5298 C.3     1  ZINC001362587626    0.1000
      8 N8          0.3069    0.6494   44.5685 N.pl3   1  ZINC001362587626   -0.3100
      9 C9         -0.9599    0.2322   44.7495 C.2     1  ZINC001362587626    0.1600
     10 N10        -1.3112   -0.3914   43.6514 N.2     1  ZINC001362587626   -0.3000
     11 N11        -0.3122   -0.3589   42.8385 N.2     1  ZINC001362587626   -0.0700
     12 N12         0.6653    0.2741   43.3874 N.2     1  ZINC001362587626   -0.0700
     13 C13        -1.9057    1.3577   49.3045 C.2     1  ZINC001362587626    0.5100
     14 O14        -2.5733    2.0238   48.5415 O.2     1  ZINC001362587626   -0.5200
     15 N15        -2.4658    0.8445   50.4178 N.am    1  ZINC001362587626   -0.6600
     16 C16        -3.8190    1.0803   50.6938 C.ar    1  ZINC001362587626    0.1000
     17 C17        -4.2159    2.2957   51.2351 C.ar    1  ZINC001362587626   -0.1000
     18 C18        -5.5498    2.5277   51.5064 C.ar    1  ZINC001362587626   -0.1900
     19 C19        -6.4932    1.5465   51.2388 C.ar    1  ZINC001362587626    0.1200
     20 O20        -7.8065    1.7754   51.5066 O.3     1  ZINC001362587626   -0.2800
     21 C21        -8.1459    2.1037   52.8554 C.3     1  ZINC001362587626    0.0100
     22 C22        -8.6692    3.5416   53.0326 C.3     1  ZINC001362587626    0.0200
     23 O23        -9.9776    2.9692   52.8345 O.3     1  ZINC001362587626   -0.3700
     24 C24        -9.5619    1.6580   53.2665 C.3     1  ZINC001362587626    0.0400
     25 C25        -6.0975    0.3321   50.6976 C.ar    1  ZINC001362587626   -0.1300
     26 C26        -4.7645    0.1008   50.4208 C.ar    1  ZINC001362587626   -0.0800
     27 H27         0.2084    2.9382   49.9260 H       1  ZINC001362587626    0.0700
     28 H28         0.1870    1.5342   51.0200 H       1  ZINC001362587626    0.0800
     29 H29         1.4684    1.6878   49.7943 H       1  ZINC001362587626    0.0800
     30 H30        -0.6221    2.3098   47.2684 H       1  ZINC001362587626    0.4100
     31 H31         0.9040    2.4594   45.4439 H       1  ZINC001362587626    0.1500
     32 H32         2.1788    1.2233   45.3204 H       1  ZINC001362587626    0.1400
     33 H33        -1.5687    0.3817   45.6290 H       1  ZINC001362587626    0.2400
     34 H34        -1.9321    0.3119   51.0279 H       1  ZINC001362587626    0.4100
     35 H35        -3.4815    3.0594   51.4442 H       1  ZINC001362587626    0.1300
     36 H36        -5.8587    3.4731   51.9275 H       1  ZINC001362587626    0.1400
     37 H37        -7.3716    1.8240   53.5696 H       1  ZINC001362587626    0.0900
     38 H38        -8.5122    3.9479   54.0318 H       1  ZINC001362587626    0.1000
     39 H39        -8.3617    4.2236   52.2399 H       1  ZINC001362587626    0.1000
     40 H40        -9.9624    0.8461   52.6595 H       1  ZINC001362587626    0.1000
     41 H41        -9.6776    1.4891   54.3372 H       1  ZINC001362587626    0.1000
     42 H42        -6.8325   -0.4314   50.4894 H       1  ZINC001362587626    0.1400
     43 H43        -4.4566   -0.8446   49.9990 H       1  ZINC001362587626    0.1500
@<TRIPOS>BOND
     1     1     2    1
     2     1    27    1
     3     1    28    1
     4     1    29    1
     5     2     3    1
     6     2     4    1
     7     2    13    1
     8     4     5   am
     9     4    30    1
    10     5     6    2
    11     5     7    1
    12     7     8    1
    13     7    31    1
    14     7    32    1
    15     8    12    1
    16     8     9    1
    17     9    10    2
    18     9    33    1
    19    10    11    1
    20    11    12    2
    21    13    14    2
    22    13    15   am
    23    15    16    1
    24    15    34    1
    25    16    26   ar
    26    16    17   ar
    27    17    18   ar
    28    17    35    1
    29    18    19   ar
    30    18    36    1
    31    19    20    1
    32    19    25   ar
    33    20    21    1
    34    21    24    1
    35    21    22    1
    36    21    37    1
    37    22    23    1
    38    22    38    1
    39    22    39    1
    40    23    24    1
    41    24    40    1
    42    24    41    1
    43    25    26   ar
    44    25    42    1
    45    26    43    1
@<TRIPOS>SUBSTRUCTURE
     1 ZINC001362587626        1 TEMP              0 ****  ****    0 ROOT


##########                                Name:    ZINC000046390957
##########                DOCK_Rotatable_Bonds:                   9
##########                         Heavy_Atoms:                  29
##########                    Molecular_Weight:             408.521
##########                DOCK_Rotatable_Bonds:                   9
##########                       Formal_Charge:           0.0100005
##########                     HBond_Acceptors:                   6
##########                        HBond_Donors:                   1
##########                         Heavy_Atoms:                  29
##########                          Grid_Score:          -35.463280
##########                     Grid_vdw_energy:          -33.170086
##########                      Grid_es_energy:           -2.293195
##########           Internal_energy_repulsive:           12.666416

@<TRIPOS>MOLECULE
ZINC000046390957
 53 55 1 0 0
SMALL
USER_CHARGES


@<TRIPOS>ATOM
      1 C1         -4.6715    0.4117   50.4337 C.3     1  ZINC000046390957   -0.1100
      2 C2         -3.7174    1.5641   50.6146 C.ar    1  ZINC000046390957   -0.0600
      3 C3         -2.6361    1.7059   49.7670 C.ar    1  ZINC000046390957   -0.1200
      4 C4         -1.7599    2.7627   49.9326 C.ar    1  ZINC000046390957   -0.1100
      5 C5         -1.9633    3.6810   50.9463 C.ar    1  ZINC000046390957   -0.1200
      6 C6         -3.0429    3.5451   51.7969 C.ar    1  ZINC000046390957   -0.0800
      7 C7         -3.2641    4.5467   52.9010 C.3     1  ZINC000046390957   -0.1100
      8 C8         -3.9277    2.4878   51.6299 C.ar    1  ZINC000046390957    0.1300
      9 N9         -5.0228    2.3476   52.4897 N.am    1  ZINC000046390957   -0.6800
     10 C10        -6.2330    2.8119   52.1206 C.2     1  ZINC000046390957    0.5200
     11 O11        -6.3729    3.3514   51.0433 O.2     1  ZINC000046390957   -0.4900
     12 C12        -7.4124    2.6608   53.0465 C.3     1  ZINC000046390957    0.0700
     13 H13        -7.9284    3.6168   53.1365 H       1  ZINC000046390957    0.1100
     14 C14        -8.3739    1.6137   52.4809 C.3     1  ZINC000046390957   -0.1700
     15 O15        -6.9491    2.2358   54.3553 O.3     1  ZINC000046390957   -0.3300
     16 C16        -7.5103    2.8265   55.4219 C.2     1  ZINC000046390957    0.4700
     17 O17        -8.6424    3.2435   55.3555 O.2     1  ZINC000046390957   -0.4800
     18 C18        -6.7285    2.9696   56.7023 C.3     1  ZINC000046390957   -0.0300
     19 C19        -7.4215    2.2070   57.8019 C.2     1  ZINC000046390957    0.0800
     20 C20        -8.0247    2.8101   58.8307 C.2     1  ZINC000046390957   -0.2500
     21 S21        -8.6994    1.5596   59.8725 S.3     1  ZINC000046390957    0.1300
     22 C22        -8.1033    0.3501   58.8212 C.2     1  ZINC000046390957    0.0600
     23 C23        -8.2779   -1.1327   59.0252 C.3     1  ZINC000046390957    0.0000
     24 C24        -9.5514   -1.5849   58.3580 C.ar    1  ZINC000046390957   -0.0900
     25 C25       -10.3969   -2.4652   59.0071 C.ar    1  ZINC000046390957   -0.0900
     26 C26       -11.5648   -2.8800   58.3951 C.ar    1  ZINC000046390957   -0.1200
     27 C27       -11.8876   -2.4143   57.1343 C.ar    1  ZINC000046390957   -0.1200
     28 C28       -11.0426   -1.5334   56.4855 C.ar    1  ZINC000046390957   -0.1200
     29 C29        -9.8767   -1.1152   57.0993 C.ar    1  ZINC000046390957   -0.1100
     30 N30        -7.4871    0.8911   57.8249 N.2     1  ZINC000046390957   -0.4500
     31 H31        -5.4061    0.6647   49.6692 H       1  ZINC000046390957    0.0800
     32 H32        -4.1167   -0.4745   50.1253 H       1  ZINC000046390957    0.0700
     33 H33        -5.1819    0.2112   51.3758 H       1  ZINC000046390957    0.0600
     34 H34        -2.4746    0.9903   48.9744 H       1  ZINC000046390957    0.1300
     35 H35        -0.9147    2.8710   49.2691 H       1  ZINC000046390957    0.1300
     36 H36        -1.2770    4.5052   51.0733 H       1  ZINC000046390957    0.1300
     37 H37        -3.8888    5.3607   52.5334 H       1  ZINC000046390957    0.0700
     38 H38        -3.7598    4.0587   53.7402 H       1  ZINC000046390957    0.0600
     39 H39        -2.3036    4.9449   53.2281 H       1  ZINC000046390957    0.0700
     40 H40        -4.9109    1.9162   53.3512 H       1  ZINC000046390957    0.4100
     41 H41        -8.7217    1.9328   51.4984 H       1  ZINC000046390957    0.0800
     42 H42        -7.8580    0.6577   52.3909 H       1  ZINC000046390957    0.0800
     43 H43        -9.2271    1.5044   53.1506 H       1  ZINC000046390957    0.0800
     44 H44        -5.7238    2.5712   56.5610 H       1  ZINC000046390957    0.1200
     45 H45        -6.6665    4.0233   56.9742 H       1  ZINC000046390957    0.1300
     46 H46        -8.0875    3.8757   58.9945 H       1  ZINC000046390957    0.1800
     47 H47        -7.4311   -1.6619   58.5881 H       1  ZINC000046390957    0.1000
     48 H48        -8.3301   -1.3491   60.0922 H       1  ZINC000046390957    0.1000
     49 H49       -10.1446   -2.8289   59.9923 H       1  ZINC000046390957    0.1200
     50 H50       -12.2250   -3.5682   58.9020 H       1  ZINC000046390957    0.1200
     51 H51       -12.7999   -2.7390   56.6559 H       1  ZINC000046390957    0.1200
     52 H52       -11.2946   -1.1698   55.5003 H       1  ZINC000046390957    0.1200
     53 H53        -9.2165   -0.4270   56.5924 H       1  ZINC000046390957    0.1200
@<TRIPOS>BOND
     1     1     2    1
     2     1    31    1
     3     1    32    1
     4     1    33    1
     5     2     8   ar
     6     2     3   ar
     7     3     4   ar
     8     3    34    1
     9     4     5   ar
    10     4    35    1
    11     5     6   ar
    12     5    36    1
    13     6     7    1
    14     6     8   ar
    15     7    37    1
    16     7    38    1
    17     7    39    1
    18     8     9    1
    19     9    10   am
    20     9    40    1
    21    10    11    2
    22    10    12    1
    23    12    13    1
    24    12    14    1
    25    12    15    1
    26    14    41    1
    27    14    42    1
    28    14    43    1
    29    15    16    1
    30    16    17    2
    31    16    18    1
    32    18    19    1
    33    18    44    1
    34    18    45    1
    35    19    30    1
    36    19    20    2
    37    20    21    1
    38    20    46    1
    39    21    22    1
    40    22    23    1
    41    22    30    2
    42    23    24    1
    43    23    47    1
    44    23    48    1
    45    24    29   ar
    46    24    25   ar
    47    25    26   ar
    48    25    49    1
    49    26    27   ar
    50    26    50    1
    51    27    28   ar
    52    27    51    1
    53    28    29   ar
    54    28    52    1
    55    29    53    1
@<TRIPOS>SUBSTRUCTURE
     1 ZINC000046390957        1 TEMP              0 ****  ****    0 ROOT


##########                                Name:    ZINC001119787528
##########                DOCK_Rotatable_Bonds:                   6
##########                         Heavy_Atoms:                  27
##########                    Molecular_Weight:             362.434
##########                DOCK_Rotatable_Bonds:                   6
##########                       Formal_Charge:          -0.0199998
##########                     HBond_Acceptors:                   7
##########                        HBond_Donors:                   1
##########                         Heavy_Atoms:                  27
##########                          Grid_Score:          -35.388660
##########                     Grid_vdw_energy:          -33.659508
##########                      Grid_es_energy:           -1.729153
##########           Internal_energy_repulsive:           11.227264

@<TRIPOS>MOLECULE
ZINC001119787528
 49 52 1 0 0
SMALL
USER_CHARGES


@<TRIPOS>ATOM
      1 C1         -1.3516    4.0494   51.1028 C.3     1  ZINC001119787528   -0.1700
      2 C2         -2.1599    3.1422   52.0327 C.3     1  ZINC001119787528    0.1000
      3 N3         -3.0810    2.3254   51.2385 N.pl3   1  ZINC001119787528   -0.4500
      4 C4         -2.7430    1.4463   50.2672 C.2     1  ZINC001119787528    0.1800
      5 N5         -3.8347    0.9105   49.7863 N.2     1  ZINC001119787528   -0.4800
      6 C6         -4.8897    1.4216   50.4244 C.2     1  ZINC001119787528   -0.0200
      7 C7         -4.4390    2.3033   51.3425 C.2     1  ZINC001119787528   -0.0100
      8 C8         -5.3144    3.0923   52.2804 C.3     1  ZINC001119787528   -0.0600
      9 C9         -6.7508    3.0832   51.7414 C.3     1  ZINC001119787528    0.1400
     10 N10        -7.0991    1.7172   51.3230 N.am    1  ZINC001119787528   -0.6200
     11 C11        -8.0781    1.0327   51.9471 C.2     1  ZINC001119787528    0.7200
     12 O12        -8.3537   -0.0960   51.5893 O.2     1  ZINC001119787528   -0.5600
     13 N13        -8.7511    1.5992   52.9681 N.am    1  ZINC001119787528   -0.6600
     14 C14        -9.7608    0.8932   53.6118 C.ar    1  ZINC001119787528    0.4200
     15 C15       -11.0276    0.7861   53.0375 C.ar    1  ZINC001119787528   -0.2500
     16 C16       -11.9975    0.0730   53.7163 C.ar    1  ZINC001119787528    0.1600
     17 N17       -11.6954   -0.4812   54.8812 N.ar    1  ZINC001119787528   -0.5300
     18 C18       -10.4885   -0.3615   55.3971 C.ar    1  ZINC001119787528    0.3500
     19 C19       -10.1917   -1.0099   56.7247 C.3     1  ZINC001119787528   -0.0100
     20 C20        -9.4847   -0.0237   57.6184 C.ar    1  ZINC001119787528   -0.0800
     21 C21        -9.8430    1.3112   57.5942 C.ar    1  ZINC001119787528   -0.1000
     22 C22        -9.1945    2.2159   58.4138 C.ar    1  ZINC001119787528   -0.1200
     23 C23        -8.1879    1.7857   59.2581 C.ar    1  ZINC001119787528   -0.1200
     24 C24        -7.8303    0.4505   59.2829 C.ar    1  ZINC001119787528   -0.1200
     25 C25        -8.4817   -0.4548   58.4663 C.ar    1  ZINC001119787528   -0.1000
     26 N26        -9.5330    0.3047   54.7818 N.ar    1  ZINC001119787528   -0.5500
     27 C27        -6.3518    1.1111   50.2074 C.3     1  ZINC001119787528    0.2000
     28 H28        -0.6663    4.6572   51.6936 H       1  ZINC001119787528    0.0800
     29 H29        -0.7831    3.4377   50.4023 H       1  ZINC001119787528    0.0600
     30 H30        -2.0296    4.6997   50.5500 H       1  ZINC001119787528    0.0600
     31 H31        -1.4819    2.4919   52.5854 H       1  ZINC001119787528    0.0900
     32 H32        -2.7284    3.7541   52.7331 H       1  ZINC001119787528    0.1000
     33 H33        -1.7373    1.2239   49.9422 H       1  ZINC001119787528    0.2100
     34 H34        -5.2928    2.6369   53.2704 H       1  ZINC001119787528    0.0800
     35 H35        -4.9533    4.1190   52.3404 H       1  ZINC001119787528    0.0900
     36 H36        -7.4356    3.4105   52.5236 H       1  ZINC001119787528    0.1100
     37 H37        -6.8237    3.7558   50.8868 H       1  ZINC001119787528    0.0800
     38 H38        -8.5311    2.4997   53.2536 H       1  ZINC001119787528    0.4200
     39 H39       -11.2450    1.2491   52.0863 H       1  ZINC001119787528    0.1800
     40 H40       -12.9897   -0.0308   53.3024 H       1  ZINC001119787528    0.1700
     41 H41       -11.1251   -1.3210   57.1939 H       1  ZINC001119787528    0.1000
     42 H42        -9.5551   -1.8808   56.5695 H       1  ZINC001119787528    0.1000
     43 H43       -10.6293    1.6474   56.9346 H       1  ZINC001119787528    0.1300
     44 H44        -9.4739    3.2590   58.3944 H       1  ZINC001119787528    0.1200
     45 H45        -7.6808    2.4925   59.8979 H       1  ZINC001119787528    0.1200
     46 H46        -7.0436    0.1145   59.9422 H       1  ZINC001119787528    0.1200
     47 H47        -8.2022   -1.4978   58.4858 H       1  ZINC001119787528    0.1200
     48 H48        -6.6810    1.5431   49.2623 H       1  ZINC001119787528    0.0900
     49 H49        -6.5092    0.0327   50.1980 H       1  ZINC001119787528    0.0900
@<TRIPOS>BOND
     1     1     2    1
     2     1    28    1
     3     1    29    1
     4     1    30    1
     5     2     3    1
     6     2    31    1
     7     2    32    1
     8     3     7    1
     9     3     4    1
    10     4     5    2
    11     4    33    1
    12     5     6    1
    13     6    27    1
    14     6     7    2
    15     7     8    1
    16     8     9    1
    17     8    34    1
    18     8    35    1
    19     9    10    1
    20     9    36    1
    21     9    37    1
    22    10    11   am
    23    10    27    1
    24    11    12    2
    25    11    13   am
    26    13    14    1
    27    13    38    1
    28    14    26   ar
    29    14    15   ar
    30    15    16   ar
    31    15    39    1
    32    16    17   ar
    33    16    40    1
    34    17    18   ar
    35    18    19    1
    36    18    26   ar
    37    19    20    1
    38    19    41    1
    39    19    42    1
    40    20    25   ar
    41    20    21   ar
    42    21    22   ar
    43    21    43    1
    44    22    23   ar
    45    22    44    1
    46    23    24   ar
    47    23    45    1
    48    24    25   ar
    49    24    46    1
    50    25    47    1
    51    27    48    1
    52    27    49    1
@<TRIPOS>SUBSTRUCTURE
     1 ZINC001119787528        1 TEMP              0 ****  ****    0 ROOT


##########                                Name:    ZINC000020646552
##########                DOCK_Rotatable_Bonds:                   5
##########                         Heavy_Atoms:                  29
##########                    Molecular_Weight:             412.556
##########                DOCK_Rotatable_Bonds:                   5
##########                       Formal_Charge:          -0.0200012
##########                     HBond_Acceptors:                   7
##########                        HBond_Donors:                   0
##########                         Heavy_Atoms:                  29
##########                          Grid_Score:          -35.325737
##########                     Grid_vdw_energy:          -34.441010
##########                      Grid_es_energy:           -0.884729
##########           Internal_energy_repulsive:           10.862206

@<TRIPOS>MOLECULE
ZINC000020646552
 57 60 1 0 0
SMALL
USER_CHARGES


@<TRIPOS>ATOM
      1 C1          0.0968    1.9690   59.5673 C.3     1  ZINC000020646552    0.0200
      2 N2         -0.0755    2.9057   58.4488 N.3     1  ZINC000020646552   -0.5400
      3 C3         -0.7126    2.2447   57.3020 C.3     1  ZINC000020646552    0.0400
      4 C4         -1.0385    3.2903   56.2303 C.3     1  ZINC000020646552    0.1200
      5 N5          0.1901    4.0351   55.9152 N.am    1  ZINC000020646552   -0.6100
      6 C6          0.5998    4.1859   54.6401 C.2     1  ZINC000020646552    0.5300
      7 O7          1.6163    4.8017   54.3986 O.2     1  ZINC000020646552   -0.5200
      8 C8         -0.2050    3.5890   53.5145 C.3     1  ZINC000020646552   -0.1500
      9 S9          0.7900    3.5753   52.0026 S.3     1  ZINC000020646552    0.0500
     10 C10        -0.2920    2.6877   50.9322 C.ar    1  ZINC000020646552    0.1500
     11 N11        -1.5556    2.4694   51.2803 N.ar    1  ZINC000020646552   -0.5200
     12 C12        -2.3700    1.8013   50.4753 C.ar    1  ZINC000020646552    0.3800
     13 C13        -3.7756    1.5772   50.8925 C.ar    1  ZINC000020646552   -0.0500
     14 C14        -4.4428    0.4158   50.5075 C.ar    1  ZINC000020646552   -0.0700
     15 C15        -5.7505    0.2122   50.8990 C.ar    1  ZINC000020646552   -0.1300
     16 C16        -6.3989    1.1584   51.6721 C.ar    1  ZINC000020646552   -0.1000
     17 C17        -5.7418    2.3133   52.0569 C.ar    1  ZINC000020646552   -0.1300
     18 C18        -4.4322    2.5247   51.6760 C.ar    1  ZINC000020646552   -0.0700
     19 N19        -1.9598    1.3292   49.3072 N.ar    1  ZINC000020646552   -0.5200
     20 C20        -0.7105    1.5106   48.8980 C.ar    1  ZINC000020646552    0.2100
     21 C21         0.1649    2.2066   49.6997 C.ar    1  ZINC000020646552   -0.2100
     22 C22         1.5894    2.4563   49.2876 C.3     1  ZINC000020646552    0.1100
     23 O23         1.9503    1.5882   48.2125 O.3     1  ZINC000020646552   -0.3600
     24 C24         1.0213    1.6225   47.1232 C.3     1  ZINC000020646552    0.1100
     25 C25         0.7397    3.0751   46.7338 C.3     1  ZINC000020646552   -0.1800
     26 C26         1.6074    0.8737   45.9246 C.3     1  ZINC000020646552   -0.1400
     27 C27        -0.2800    0.9539   47.5665 C.3     1  ZINC000020646552   -0.0900
     28 C28         0.9594    4.6112   57.0286 C.3     1  ZINC000020646552    0.1100
     29 C29         1.2066    3.5135   58.0688 C.3     1  ZINC000020646552    0.0400
     30 H30         0.5000    2.5017   60.4285 H       1  ZINC000020646552    0.0700
     31 H31        -0.8677    1.5334   59.8284 H       1  ZINC000020646552    0.0700
     32 H32         0.7861    1.1769   59.2749 H       1  ZINC000020646552    0.0300
     33 H33        -0.0332    1.4994   56.8883 H       1  ZINC000020646552    0.0400
     34 H34        -1.6323    1.7583   57.6273 H       1  ZINC000020646552    0.0900
     35 H35        -1.4053    2.7926   55.3327 H       1  ZINC000020646552    0.1000
     36 H36        -1.7964    3.9770   56.6072 H       1  ZINC000020646552    0.0800
     37 H37        -0.4889    2.5687   53.7719 H       1  ZINC000020646552    0.1300
     38 H38        -1.1026    4.1861   53.3533 H       1  ZINC000020646552    0.1200
     39 H39        -3.9376   -0.3235   49.9036 H       1  ZINC000020646552    0.1400
     40 H40        -6.2686   -0.6873   50.6009 H       1  ZINC000020646552    0.1300
     41 H41        -7.4222    0.9950   51.9763 H       1  ZINC000020646552    0.1300
     42 H42        -6.2531    3.0488   52.6602 H       1  ZINC000020646552    0.1300
     43 H43        -3.9201    3.4266   51.9769 H       1  ZINC000020646552    0.1300
     44 H44         1.6963    3.4925   48.9668 H       1  ZINC000020646552    0.0800
     45 H45         2.2483    2.2733   50.1364 H       1  ZINC000020646552    0.1100
     46 H46         1.6695    3.5571   46.4320 H       1  ZINC000020646552    0.0700
     47 H47         0.0325    3.0984   45.9047 H       1  ZINC000020646552    0.0700
     48 H48         0.3164    3.6046   47.5875 H       1  ZINC000020646552    0.0600
     49 H49         1.8011   -0.1623   46.2027 H       1  ZINC000020646552    0.0700
     50 H50         0.8985    0.9013   45.0971 H       1  ZINC000020646552    0.0800
     51 H51         2.5401    1.3487   45.6201 H       1  ZINC000020646552    0.0700
     52 H52        -0.1213   -0.1201   47.6633 H       1  ZINC000020646552    0.1000
     53 H53        -1.0549    1.1399   46.8229 H       1  ZINC000020646552    0.1000
     54 H54         1.9135    4.9867   56.6586 H       1  ZINC000020646552    0.0900
     55 H55         0.3936    5.4249   57.4822 H       1  ZINC000020646552    0.0800
     56 H56         1.6789    3.9474   58.9502 H       1  ZINC000020646552    0.0900
     57 H57         1.8593    2.7506   57.6444 H       1  ZINC000020646552    0.0400
@<TRIPOS>BOND
     1     1     2    1
     2     1    30    1
     3     1    31    1
     4     1    32    1
     5     2    29    1
     6     2     3    1
     7     3     4    1
     8     3    33    1
     9     3    34    1
    10     4     5    1
    11     4    35    1
    12     4    36    1
    13     5     6   am
    14     5    28    1
    15     6     7    2
    16     6     8    1
    17     8     9    1
    18     8    37    1
    19     8    38    1
    20     9    10    1
    21    10    21   ar
    22    10    11   ar
    23    11    12   ar
    24    12    13    1
    25    12    19   ar
    26    13    18   ar
    27    13    14   ar
    28    14    15   ar
    29    14    39    1
    30    15    16   ar
    31    15    40    1
    32    16    17   ar
    33    16    41    1
    34    17    18   ar
    35    17    42    1
    36    18    43    1
    37    19    20   ar
    38    20    27    1
    39    20    21   ar
    40    21    22    1
    41    22    23    1
    42    22    44    1
    43    22    45    1
    44    23    24    1
    45    24    25    1
    46    24    26    1
    47    24    27    1
    48    25    46    1
    49    25    47    1
    50    25    48    1
    51    26    49    1
    52    26    50    1
    53    26    51    1
    54    27    52    1
    55    27    53    1
    56    28    29    1
    57    28    54    1
    58    28    55    1
    59    29    56    1
    60    29    57    1
@<TRIPOS>SUBSTRUCTURE
     1 ZINC000020646552        1 TEMP              0 ****  ****    0 ROOT


##########                                Name:    ZINC000509132103
##########                DOCK_Rotatable_Bonds:                   7
##########                         Heavy_Atoms:                  29
##########                    Molecular_Weight:              405.52
##########                DOCK_Rotatable_Bonds:                   7
##########                       Formal_Charge:          -0.0499998
##########                     HBond_Acceptors:                   6
##########                        HBond_Donors:                   0
##########                         Heavy_Atoms:                  29
##########                          Grid_Score:          -35.313065
##########                     Grid_vdw_energy:          -34.228653
##########                      Grid_es_energy:           -1.084410
##########           Internal_energy_repulsive:           15.729661

@<TRIPOS>MOLECULE
ZINC000509132103
 52 55 1 0 0
SMALL
USER_CHARGES


@<TRIPOS>ATOM
      1 C1          1.6070    0.3732   42.7829 C.3     1  ZINC000509132103    0.0300
      2 O2          1.9049    0.1969   44.1694 O.3     1  ZINC000509132103   -0.3000
      3 C3          1.0081    0.6910   45.0598 C.ar    1  ZINC000509132103    0.2700
      4 C4         -0.1262    1.3617   44.6103 C.ar    1  ZINC000509132103   -0.1300
      5 C5         -1.0122    1.8479   45.5600 C.ar    1  ZINC000509132103   -0.0700
      6 C6         -0.7140    1.6364   46.8982 C.ar    1  ZINC000509132103    0.0500
      7 C7         -1.6459    2.1451   47.9677 C.3     1  ZINC000509132103   -0.0500
      8 S8         -1.4399    1.1520   49.4716 S.3     1  ZINC000509132103   -0.1500
      9 C9         -2.4207    2.0602   50.6979 C.3     1  ZINC000509132103   -0.1300
     10 C10        -3.8875    1.8563   50.4188 C.2     1  ZINC000509132103    0.5400
     11 O11        -4.2394    1.0568   49.5774 O.2     1  ZINC000509132103   -0.5100
     12 N12        -4.8084    2.5625   51.1042 N.am    1  ZINC000509132103   -0.6100
     13 C13        -4.4156    3.5368   52.1280 C.3     1  ZINC000509132103    0.1500
     14 C14        -5.2891    3.3732   53.3464 C.ar    1  ZINC000509132103   -0.1000
     15 C15        -4.9141    4.0373   54.5059 C.ar    1  ZINC000509132103   -0.1100
     16 C16        -5.6785    3.9347   55.6504 C.ar    1  ZINC000509132103   -0.1200
     17 C17        -6.8269    3.1657   55.6407 C.ar    1  ZINC000509132103   -0.1200
     18 C18        -7.1985    2.5019   54.4899 C.ar    1  ZINC000509132103   -0.1100
     19 C19        -6.4277    2.5985   53.3380 C.ar    1  ZINC000509132103   -0.0600
     20 C20        -6.8805    1.8247   52.1279 C.3     1  ZINC000509132103   -0.0200
     21 H21        -6.5904    0.7803   52.2411 H       1  ZINC000509132103    0.1000
     22 C22        -8.3808    1.9130   52.0160 C.ar    1  ZINC000509132103   -0.0800
     23 C23        -9.1502    0.7696   52.1228 C.ar    1  ZINC000509132103   -0.1100
     24 C24       -10.5264    0.8506   52.0202 C.ar    1  ZINC000509132103   -0.1200
     25 C25       -11.1331    2.0750   51.8112 C.ar    1  ZINC000509132103   -0.1200
     26 C26       -10.3636    3.2184   51.7053 C.ar    1  ZINC000509132103   -0.1200
     27 C27        -8.9878    3.1382   51.8123 C.ar    1  ZINC000509132103   -0.1100
     28 C28        -6.2486    2.3912   50.8510 C.3     1  ZINC000509132103    0.1200
     29 N29         0.3847    0.9897   47.2340 N.ar    1  ZINC000509132103   -0.1900
     30 N30         1.2052    0.5328   46.3590 N.ar    1  ZINC000509132103   -0.3000
     31 H31         1.5294    1.4375   42.5604 H       1  ZINC000509132103    0.0600
     32 H32         2.4027   -0.0666   42.1815 H       1  ZINC000509132103    0.1000
     33 H33         0.6618   -0.1168   42.5492 H       1  ZINC000509132103    0.0600
     34 H34        -0.3103    1.4993   43.5550 H       1  ZINC000509132103    0.1600
     35 H35        -1.9075    2.3758   45.2666 H       1  ZINC000509132103    0.1600
     36 H36        -1.4139    3.1875   48.1860 H       1  ZINC000509132103    0.1100
     37 H37        -2.6758    2.0674   47.6192 H       1  ZINC000509132103    0.1000
     38 H38        -2.1860    1.6912   51.6963 H       1  ZINC000509132103    0.1100
     39 H39        -2.1837    3.1225   50.6382 H       1  ZINC000509132103    0.1100
     40 H40        -3.3738    3.3730   52.4039 H       1  ZINC000509132103    0.1000
     41 H41        -4.5308    4.5457   51.7318 H       1  ZINC000509132103    0.0900
     42 H42        -4.0170    4.6387   54.5127 H       1  ZINC000509132103    0.1200
     43 H43        -5.3807    4.4534   56.5496 H       1  ZINC000509132103    0.1300
     44 H44        -7.4315    3.0843   56.5318 H       1  ZINC000509132103    0.1200
     45 H45        -8.0963    1.9017   54.4843 H       1  ZINC000509132103    0.1200
     46 H46        -8.6763   -0.1870   52.2861 H       1  ZINC000509132103    0.1200
     47 H47       -11.1276   -0.0428   52.1029 H       1  ZINC000509132103    0.1200
     48 H48       -12.2082    2.1382   51.7303 H       1  ZINC000509132103    0.1200
     49 H49       -10.8376    4.1751   51.5418 H       1  ZINC000509132103    0.1200
     50 H50        -8.3866    4.0315   51.7295 H       1  ZINC000509132103    0.1200
     51 H51        -6.7027    3.3524   50.6099 H       1  ZINC000509132103    0.0800
     52 H52        -6.3974    1.6950   50.0257 H       1  ZINC000509132103    0.1000
@<TRIPOS>BOND
     1     1     2    1
     2     1    31    1
     3     1    32    1
     4     1    33    1
     5     2     3    1
     6     3    30   ar
     7     3     4   ar
     8     4     5   ar
     9     4    34    1
    10     5     6   ar
    11     5    35    1
    12     6     7    1
    13     6    29   ar
    14     7     8    1
    15     7    36    1
    16     7    37    1
    17     8     9    1
    18     9    10    1
    19     9    38    1
    20     9    39    1
    21    10    11    2
    22    10    12   am
    23    12    28    1
    24    12    13    1
    25    13    14    1
    26    13    40    1
    27    13    41    1
    28    14    19   ar
    29    14    15   ar
    30    15    16   ar
    31    15    42    1
    32    16    17   ar
    33    16    43    1
    34    17    18   ar
    35    17    44    1
    36    18    19   ar
    37    18    45    1
    38    19    20    1
    39    20    21    1
    40    20    22    1
    41    20    28    1
    42    22    27   ar
    43    22    23   ar
    44    23    24   ar
    45    23    46    1
    46    24    25   ar
    47    24    47    1
    48    25    26   ar
    49    25    48    1
    50    26    27   ar
    51    26    49    1
    52    27    50    1
    53    28    51    1
    54    28    52    1
    55    29    30   ar
@<TRIPOS>SUBSTRUCTURE
     1 ZINC000509132103        1 TEMP              0 ****  ****    0 ROOT


##########                                Name:    ZINC000558213406
##########                DOCK_Rotatable_Bonds:                   8
##########                         Heavy_Atoms:                  30
##########                    Molecular_Weight:               408.5
##########                DOCK_Rotatable_Bonds:                   8
##########                       Formal_Charge:          -0.0299987
##########                     HBond_Acceptors:                   7
##########                        HBond_Donors:                   2
##########                         Heavy_Atoms:                  30
##########                          Grid_Score:          -35.194302
##########                     Grid_vdw_energy:          -35.932144
##########                      Grid_es_energy:            0.737844
##########           Internal_energy_repulsive:            8.976569

@<TRIPOS>MOLECULE
ZINC000558213406
 58 61 1 0 0
SMALL
USER_CHARGES


@<TRIPOS>ATOM
      1 O1         -1.1968    2.4437   56.1558 O.2     1  ZINC000558213406   -0.5700
      2 C2         -1.4496    3.3551   56.9198 C.2     1  ZINC000558213406    0.7100
      3 N3         -2.4734    4.1910   56.6564 N.am    1  ZINC000558213406   -0.6800
      4 C4         -3.2431    4.0132   55.4988 C.ar    1  ZINC000558213406    0.1700
      5 C5         -4.4653    3.3583   55.5714 C.ar    1  ZINC000558213406   -0.1300
      6 C6         -5.2235    3.1839   54.4306 C.ar    1  ZINC000558213406   -0.1100
      7 C7         -4.7641    3.6624   53.2120 C.ar    1  ZINC000558213406    0.0600
      8 O8         -5.5109    3.4900   52.0891 O.3     1  ZINC000558213406   -0.2500
      9 C9         -5.5360    2.2548   51.5231 C.ar    1  ZINC000558213406    0.0700
     10 C10        -6.7443    1.5943   51.3238 C.ar    1  ZINC000558213406   -0.1500
     11 C11        -6.7191    0.3365   50.7431 C.ar    1  ZINC000558213406   -0.1300
     12 C12        -5.5045   -0.2167   50.3834 C.ar    1  ZINC000558213406    0.0600
     13 N13        -4.3765    0.4359   50.5865 N.ar    1  ZINC000558213406   -0.4500
     14 C14        -4.3573    1.6364   51.1302 C.ar    1  ZINC000558213406    0.0800
     15 C15        -3.5431    4.3173   53.1392 C.ar    1  ZINC000558213406   -0.1000
     16 C16        -2.7865    4.4969   54.2802 C.ar    1  ZINC000558213406   -0.1100
     17 N17        -0.7094    3.5262   58.0331 N.am    1  ZINC000558213406   -0.7300
     18 C18         0.4037    2.6175   58.3195 C.3     1  ZINC000558213406    0.1500
     19 H19         0.9273    2.3502   57.4015 H       1  ZINC000558213406    0.1100
     20 C20         1.3807    3.2523   59.3440 C.3     1  ZINC000558213406   -0.1400
     21 C21         2.0088    1.9947   59.9950 C.3     1  ZINC000558213406    0.1000
     22 N22         0.9048    1.0211   60.0775 N.am    1  ZINC000558213406   -0.6200
     23 C23         0.8262   -0.0055   60.9472 C.2     1  ZINC000558213406    0.5400
     24 O24        -0.1331   -0.7471   60.9247 O.2     1  ZINC000558213406   -0.5300
     25 C25         1.9304   -0.2318   61.9475 C.3     1  ZINC000558213406   -0.1000
     26 C26         1.3680   -0.9548   63.1730 C.3     1  ZINC000558213406   -0.1100
     27 C27         2.4890   -1.1845   64.1886 C.3     1  ZINC000558213406   -0.1200
     28 C28         3.5870   -2.0388   63.5518 C.3     1  ZINC000558213406   -0.1200
     29 C29         4.1493   -1.3157   62.3262 C.3     1  ZINC000558213406   -0.1200
     30 C30         3.0283   -1.0859   61.3106 C.3     1  ZINC000558213406   -0.1100
     31 C31        -0.0973    1.3539   59.0502 C.3     1  ZINC000558213406    0.1000
     32 H32        -2.6776    4.9157   57.2680 H       1  ZINC000558213406    0.4100
     33 H33        -4.8226    2.9852   56.5197 H       1  ZINC000558213406    0.1300
     34 H34        -6.1742    2.6745   54.4870 H       1  ZINC000558213406    0.1400
     35 H35        -7.6787    2.0507   51.6150 H       1  ZINC000558213406    0.1400
     36 H36        -7.6377   -0.2055   50.5736 H       1  ZINC000558213406    0.1400
     37 H37        -5.4787   -1.1967   49.9304 H       1  ZINC000558213406    0.1600
     38 H38        -3.4138    2.1400   51.2805 H       1  ZINC000558213406    0.1700
     39 H39        -3.1860    4.6897   52.1903 H       1  ZINC000558213406    0.1400
     40 H40        -1.8363    5.0070   54.2233 H       1  ZINC000558213406    0.1500
     41 H41        -0.9136    4.2508   58.6447 H       1  ZINC000558213406    0.4000
     42 H42         2.1393    3.8519   58.8408 H       1  ZINC000558213406    0.0900
     43 H43         0.8416    3.8462   60.0819 H       1  ZINC000558213406    0.0800
     44 H44         2.8123    1.6051   59.3699 H       1  ZINC000558213406    0.0700
     45 H45         2.3824    2.2299   60.9915 H       1  ZINC000558213406    0.0800
     46 H46         2.3474    0.7283   62.2517 H       1  ZINC000558213406    0.0900
     47 H47         0.5857   -0.3462   63.6267 H       1  ZINC000558213406    0.0600
     48 H48         0.9509   -1.9148   62.8687 H       1  ZINC000558213406    0.0700
     49 H49         2.9060   -0.2245   64.4928 H       1  ZINC000558213406    0.0600
     50 H50         2.0883   -1.6997   65.0616 H       1  ZINC000558213406    0.0700
     51 H51         4.3855   -2.2024   64.2753 H       1  ZINC000558213406    0.0600
     52 H52         3.1699   -2.9988   63.2475 H       1  ZINC000558213406    0.0600
     53 H53         4.5664   -0.3557   62.6304 H       1  ZINC000558213406    0.0600
     54 H54         4.9316   -1.9243   61.8726 H       1  ZINC000558213406    0.0700
     55 H55         2.6113   -2.0460   61.0064 H       1  ZINC000558213406    0.0800
     56 H56         3.4289   -0.5708   60.4376 H       1  ZINC000558213406    0.0600
     57 H57        -1.0583    1.5579   59.5221 H       1  ZINC000558213406    0.0800
     58 H58        -0.1955    0.5272   58.3465 H       1  ZINC000558213406    0.0800
@<TRIPOS>BOND
     1     1     2    2
     2     2     3   am
     3     2    17   am
     4     3     4    1
     5     3    32    1
     6     4    16   ar
     7     4     5   ar
     8     5     6   ar
     9     5    33    1
    10     6     7   ar
    11     6    34    1
    12     7     8    1
    13     7    15   ar
    14     8     9    1
    15     9    14   ar
    16     9    10   ar
    17    10    11   ar
    18    10    35    1
    19    11    12   ar
    20    11    36    1
    21    12    13   ar
    22    12    37    1
    23    13    14   ar
    24    14    38    1
    25    15    16   ar
    26    15    39    1
    27    16    40    1
    28    17    18    1
    29    17    41    1
    30    18    19    1
    31    18    31    1
    32    18    20    1
    33    20    21    1
    34    20    42    1
    35    20    43    1
    36    21    22    1
    37    21    44    1
    38    21    45    1
    39    22    23   am
    40    22    31    1
    41    23    24    2
    42    23    25    1
    43    25    30    1
    44    25    26    1
    45    25    46    1
    46    26    27    1
    47    26    47    1
    48    26    48    1
    49    27    28    1
    50    27    49    1
    51    27    50    1
    52    28    29    1
    53    28    51    1
    54    28    52    1
    55    29    30    1
    56    29    53    1
    57    29    54    1
    58    30    55    1
    59    30    56    1
    60    31    57    1
    61    31    58    1
@<TRIPOS>SUBSTRUCTURE
     1 ZINC000558213406        1 TEMP              0 ****  ****    0 ROOT


##########                                Name:    ZINC000032503012
##########                DOCK_Rotatable_Bonds:                   8
##########                         Heavy_Atoms:                  27
##########                    Molecular_Weight:             390.503
##########                DOCK_Rotatable_Bonds:                   8
##########                       Formal_Charge:           0.0099995
##########                     HBond_Acceptors:                   7
##########                        HBond_Donors:                   2
##########                         Heavy_Atoms:                  27
##########                          Grid_Score:          -35.191463
##########                     Grid_vdw_energy:          -33.575539
##########                      Grid_es_energy:           -1.615926
##########           Internal_energy_repulsive:           45.281765

@<TRIPOS>MOLECULE
ZINC000032503012
 53 54 1 0 0
SMALL
USER_CHARGES


@<TRIPOS>ATOM
      1 C1         -9.0788    3.1804   53.4398 C.3     1  ZINC000032503012   -0.1200
      2 C2         -8.5452    3.3440   52.0400 C.ar    1  ZINC000032503012   -0.0500
      3 C3         -9.2706    4.0564   51.1033 C.ar    1  ZINC000032503012   -0.1600
      4 C4         -8.7837    4.2083   49.8179 C.ar    1  ZINC000032503012   -0.0700
      5 C5         -7.5708    3.6483   49.4669 C.ar    1  ZINC000032503012   -0.1500
      6 C6         -6.8409    2.9328   50.4052 C.ar    1  ZINC000032503012    0.1300
      7 O7         -5.6471    2.3811   50.0625 O.3     1  ZINC000032503012   -0.2800
      8 C8         -5.0390    1.5069   51.0152 C.3     1  ZINC000032503012    0.0700
      9 H9         -5.0519    1.9761   51.9990 H       1  ZINC000032503012    0.1100
     10 C10        -5.8161    0.1901   51.0680 C.3     1  ZINC000032503012   -0.1800
     11 C11        -3.6141    1.2332   50.6079 C.2     1  ZINC000032503012    0.5200
     12 O12        -3.3260    0.1803   50.0794 O.2     1  ZINC000032503012   -0.4900
     13 N13        -2.6598    2.1584   50.8310 N.am    1  ZINC000032503012   -0.6700
     14 C14        -1.3368    1.9044   50.4528 C.ar    1  ZINC000032503012    0.1300
     15 C15        -0.3086    2.0569   51.3735 C.ar    1  ZINC000032503012   -0.0600
     16 C16         0.9964    1.8054   50.9972 C.ar    1  ZINC000032503012   -0.1200
     17 C17         1.2795    1.4026   49.7052 C.ar    1  ZINC000032503012   -0.0300
     18 C18         0.2577    1.2501   48.7857 C.ar    1  ZINC000032503012   -0.6600
     19 S19         0.6237    0.7365   47.1404 S.o2    1  ZINC000032503012    2.7000
     20 O20         1.4862   -0.3872   47.2533 O.2     1  ZINC000032503012   -0.9600
     21 O21        -0.6159    0.6981   46.4469 O.2     1  ZINC000032503012   -0.9500
     22 N22         1.5156    1.9419   46.4376 N.am    1  ZINC000032503012   -1.1100
     23 C23         0.9540    3.2888   46.3090 C.3     1  ZINC000032503012    0.1700
     24 C24         0.8797    3.9445   47.6893 C.3     1  ZINC000032503012   -0.1900
     25 C25         1.8468    4.1283   45.3929 C.3     1  ZINC000032503012   -0.1500
     26 C26        -0.4512    3.2003   45.7101 C.3     1  ZINC000032503012   -0.1800
     27 C27        -1.0498    1.4936   49.1574 C.ar    1  ZINC000032503012   -0.0400
     28 C28        -7.3288    2.7866   51.6954 C.ar    1  ZINC000032503012   -0.2100
     29 H29        -8.7308    4.0062   54.0602 H       1  ZINC000032503012    0.0700
     30 H30       -10.1686    3.1784   53.4153 H       1  ZINC000032503012    0.0700
     31 H31        -8.7230    2.2381   53.8564 H       1  ZINC000032503012    0.0700
     32 H32       -10.2193    4.4947   51.3757 H       1  ZINC000032503012    0.1300
     33 H33        -9.3523    4.7650   49.0878 H       1  ZINC000032503012    0.1300
     34 H34        -7.1911    3.7669   48.4628 H       1  ZINC000032503012    0.1300
     35 H35        -6.8467    0.3880   51.3627 H       1  ZINC000032503012    0.0800
     36 H36        -5.8032   -0.2791   50.0843 H       1  ZINC000032503012    0.0800
     37 H37        -5.3522   -0.4767   51.7948 H       1  ZINC000032503012    0.0800
     38 H38        -2.8901    3.0006   51.2537 H       1  ZINC000032503012    0.4100
     39 H39        -0.5290    2.3723   52.3827 H       1  ZINC000032503012    0.1400
     40 H40         1.7966    1.9238   51.7128 H       1  ZINC000032503012    0.1400
     41 H41         2.3007    1.2069   49.4133 H       1  ZINC000032503012    0.1500
     42 H42         2.4100    1.7561   46.1113 H       1  ZINC000032503012    0.4200
     43 H43         1.8432    3.8478   48.1898 H       1  ZINC000032503012    0.0700
     44 H44         0.6327    5.0001   47.5773 H       1  ZINC000032503012    0.0800
     45 H45         0.1103    3.4524   48.2844 H       1  ZINC000032503012    0.0700
     46 H46         1.8997    3.6613   44.4096 H       1  ZINC000032503012    0.0700
     47 H47         1.4288    5.1304   45.2972 H       1  ZINC000032503012    0.0700
     48 H48         2.8478    4.1914   45.8197 H       1  ZINC000032503012    0.0600
     49 H49        -1.1342    2.7772   46.4468 H       1  ZINC000032503012    0.0900
     50 H50        -0.7906    4.1978   45.4307 H       1  ZINC000032503012    0.0700
     51 H51        -0.4300    2.5629   44.8262 H       1  ZINC000032503012    0.0600
     52 H52        -1.8473    1.3744   48.4390 H       1  ZINC000032503012    0.1400
     53 H53        -6.7625    2.2301   52.4276 H       1  ZINC000032503012    0.1300
@<TRIPOS>BOND
     1     1     2    1
     2     1    29    1
     3     1    30    1
     4     1    31    1
     5     2    28   ar
     6     2     3   ar
     7     3     4   ar
     8     3    32    1
     9     4     5   ar
    10     4    33    1
    11     5     6   ar
    12     5    34    1
    13     6     7    1
    14     6    28   ar
    15     7     8    1
    16     8     9    1
    17     8    10    1
    18     8    11    1
    19    10    35    1
    20    10    36    1
    21    10    37    1
    22    11    12    2
    23    11    13   am
    24    13    14    1
    25    13    38    1
    26    14    27   ar
    27    14    15   ar
    28    15    16   ar
    29    15    39    1
    30    16    17   ar
    31    16    40    1
    32    17    18   ar
    33    17    41    1
    34    18    19    1
    35    18    27   ar
    36    19    20    2
    37    19    21    2
    38    19    22   am
    39    22    23    1
    40    22    42    1
    41    23    24    1
    42    23    25    1
    43    23    26    1
    44    24    43    1
    45    24    44    1
    46    24    45    1
    47    25    46    1
    48    25    47    1
    49    25    48    1
    50    26    49    1
    51    26    50    1
    52    26    51    1
    53    27    52    1
    54    28    53    1
@<TRIPOS>SUBSTRUCTURE
     1 ZINC000032503012        1 TEMP              0 ****  ****    0 ROOT


##########                                Name:    ZINC000599797189
##########                DOCK_Rotatable_Bonds:                  13
##########                         Heavy_Atoms:                  23
##########                    Molecular_Weight:             329.313
##########                DOCK_Rotatable_Bonds:                  13
##########                       Formal_Charge:          0.00999949
##########                     HBond_Acceptors:                  11
##########                        HBond_Donors:                   3
##########                         Heavy_Atoms:                  23
##########                          Grid_Score:          -35.151447
##########                     Grid_vdw_energy:          -32.852863
##########                      Grid_es_energy:           -2.298585
##########           Internal_energy_repulsive:            7.834473

@<TRIPOS>MOLECULE
ZINC000599797189
 42 42 1 0 0
SMALL
USER_CHARGES


@<TRIPOS>ATOM
      1 C1         -8.1668    4.7354   49.1428 C.3     1  ZINC000599797189   -0.1500
      2 C2         -7.7526    3.7566   50.2435 C.3     1  ZINC000599797189    0.0600
      3 O3         -6.6639    2.9232   49.7655 O.3     1  ZINC000599797189   -0.3600
      4 C4         -6.4265    1.7860   50.4379 C.2     1  ZINC000599797189    0.4500
      5 O5         -6.9158    0.7477   50.0607 O.2     1  ZINC000599797189   -0.4800
      6 C6         -5.5496    1.8044   51.6634 C.3     1  ZINC000599797189    0.1500
      7 N7         -4.1421    1.7891   51.2571 N.pl3   1  ZINC000599797189   -0.3800
      8 C8         -3.1651    2.5919   51.7116 C.2     1  ZINC000599797189    0.2800
      9 N9         -2.0522    2.2645   51.1059 N.2     1  ZINC000599797189   -0.5100
     10 C10        -2.2786    1.2571   50.2575 C.2     1  ZINC000599797189    0.4700
     11 N11        -1.3194    0.6493   49.4407 N.am    1  ZINC000599797189   -0.6400
     12 C12        -0.8275    1.3089   48.3733 C.2     1  ZINC000599797189    0.7100
     13 O13        -1.2187    2.4318   48.1193 O.2     1  ZINC000599797189   -0.5300
     14 N14         0.0978    0.7238   47.5873 N.am    1  ZINC000599797189   -0.7300
     15 C15         0.6338    1.4415   46.4280 C.3     1  ZINC000599797189    0.1100
     16 C16        -0.1326    1.0248   45.1712 C.3     1  ZINC000599797189    0.1100
     17 H17        -0.3846   -0.0338   45.2335 H       1  ZINC000599797189    0.1200
     18 O18        -1.3321    1.7947   45.0676 O.3     1  ZINC000599797189   -0.5400
     19 C19         0.7387    1.2700   43.9376 C.3     1  ZINC000599797189   -0.1500
     20 C20         0.9127    2.7527   43.7321 C.2     1  ZINC000599797189    0.4600
     21 O21         1.8499    3.3263   44.2347 O.2     1  ZINC000599797189   -0.4900
     22 O22         0.0267    3.4360   42.9907 O.3     1  ZINC000599797189   -0.3600
     23 C23         0.2566    4.8615   42.8365 C.3     1  ZINC000599797189    0.0400
     24 N24        -3.5469    0.9287   50.3204 N.2     1  ZINC000599797189   -0.3200
     25 H25        -8.9840    5.3610   49.5016 H       1  ZINC000599797189    0.0800
     26 H26        -7.3171    5.3643   48.8773 H       1  ZINC000599797189    0.0700
     27 H27        -8.4943    4.1778   48.2653 H       1  ZINC000599797189    0.0700
     28 H28        -7.4250    4.3141   51.1210 H       1  ZINC000599797189    0.0700
     29 H29        -8.6023    3.1276   50.5089 H       1  ZINC000599797189    0.0700
     30 H30        -5.7513    2.7065   52.2410 H       1  ZINC000599797189    0.1500
     31 H31        -5.7608    0.9269   52.2745 H       1  ZINC000599797189    0.1300
     32 H32        -3.2787    3.3726   52.4491 H       1  ZINC000599797189    0.2300
     33 H33        -1.0082   -0.2470   49.6427 H       1  ZINC000599797189    0.4200
     34 H34         0.4091   -0.1725   47.7892 H       1  ZINC000599797189    0.4000
     35 H35         0.5229    2.5148   46.5821 H       1  ZINC000599797189    0.0800
     36 H36         1.6895    1.1990   46.3069 H       1  ZINC000599797189    0.0800
     37 H37        -1.9467    1.6661   45.8031 H       1  ZINC000599797189    0.3800
     38 H38         1.7143    0.8064   44.0839 H       1  ZINC000599797189    0.1200
     39 H39         0.2578    0.8357   43.0610 H       1  ZINC000599797189    0.1200
     40 H40         0.2486    5.3389   43.8163 H       1  ZINC000599797189    0.0600
     41 H41         1.2237    5.0242   42.3608 H       1  ZINC000599797189    0.0600
     42 H42        -0.5302    5.2913   42.2164 H       1  ZINC000599797189    0.1000
@<TRIPOS>BOND
     1     1     2    1
     2     1    25    1
     3     1    26    1
     4     1    27    1
     5     2     3    1
     6     2    28    1
     7     2    29    1
     8     3     4    1
     9     4     5    2
    10     4     6    1
    11     6     7    1
    12     6    30    1
    13     6    31    1
    14     7    24    1
    15     7     8    1
    16     8     9    2
    17     8    32    1
    18     9    10    1
    19    10    11    1
    20    10    24    2
    21    11    12   am
    22    11    33    1
    23    12    13    2
    24    12    14   am
    25    14    15    1
    26    14    34    1
    27    15    16    1
    28    15    35    1
    29    15    36    1
    30    16    17    1
    31    16    18    1
    32    16    19    1
    33    18    37    1
    34    19    20    1
    35    19    38    1
    36    19    39    1
    37    20    21    2
    38    20    22    1
    39    22    23    1
    40    23    40    1
    41    23    41    1
    42    23    42    1
@<TRIPOS>SUBSTRUCTURE
     1 ZINC000599797189        1 TEMP              0 ****  ****    0 ROOT


##########                                Name:    ZINC000766421809
##########                DOCK_Rotatable_Bonds:                   7
##########                         Heavy_Atoms:                  26
##########                    Molecular_Weight:             358.372
##########                DOCK_Rotatable_Bonds:                   7
##########                       Formal_Charge:         4.61936e-07
##########                     HBond_Acceptors:                   8
##########                        HBond_Donors:                   0
##########                         Heavy_Atoms:                  26
##########                          Grid_Score:          -35.092785
##########                     Grid_vdw_energy:          -33.642132
##########                      Grid_es_energy:           -1.450652
##########           Internal_energy_repulsive:            7.092756

@<TRIPOS>MOLECULE
ZINC000766421809
 45 47 1 0 0
SMALL
USER_CHARGES


@<TRIPOS>ATOM
      1 C1        -10.3824   -0.7642   56.7618 C.3     1  ZINC000766421809   -0.0700
      2 C2        -10.9537   -0.3073   55.4441 C.2     1  ZINC000766421809    0.0700
      3 N3        -12.1746   -0.5170   55.0233 N.2     1  ZINC000766421809   -0.2900
      4 N4        -12.3069    0.0658   53.7563 N.pl3   1  ZINC000766421809   -0.3700
      5 C5        -13.5153    0.0623   52.9281 C.3     1  ZINC000766421809    0.1000
      6 C6        -11.1247    0.6308   53.4334 C.2     1  ZINC000766421809    0.0700
      7 C7        -10.8122    1.3701   52.1580 C.3     1  ZINC000766421809    0.1400
      8 O8         -9.4627    1.9016   52.2250 O.3     1  ZINC000766421809   -0.3400
      9 C9         -8.4606    1.0592   51.9281 C.2     1  ZINC000766421809    0.4700
     10 O10        -8.6856   -0.1184   51.7783 O.2     1  ZINC000766421809   -0.5000
     11 C11        -7.0550    1.5824   51.7816 C.3     1  ZINC000766421809   -0.1100
     12 C12        -6.1885    0.5294   51.0877 C.3     1  ZINC000766421809   -0.0200
     13 C13        -4.8258    1.1071   50.8048 C.2     1  ZINC000766421809    0.1900
     14 N14        -4.0167    0.7538   49.8374 N.2     1  ZINC000766421809   -0.4700
     15 C15        -2.9221    1.5358   49.9754 C.2     1  ZINC000766421809    0.2200
     16 C16        -1.7129    1.5187   49.1155 C.ar    1  ZINC000766421809   -0.0300
     17 C17        -0.4608    1.2736   49.6756 C.ar    1  ZINC000766421809   -0.0500
     18 C18         0.6610    1.2580   48.8723 C.ar    1  ZINC000766421809   -0.1500
     19 C19         0.5436    1.4862   47.5108 C.ar    1  ZINC000766421809    0.1200
     20 F20         1.6445    1.4705   46.7279 F       1  ZINC000766421809   -0.1300
     21 C21        -0.6999    1.7299   46.9497 C.ar    1  ZINC000766421809   -0.1200
     22 C22        -0.8214    1.9764   45.4679 C.3     1  ZINC000766421809   -0.1200
     23 C23        -1.8271    1.7420   47.7446 C.ar    1  ZINC000766421809   -0.0600
     24 N24        -3.1291    2.3105   51.0086 N.2     1  ZINC000766421809   -0.3700
     25 O25        -4.2181    2.0803   51.4906 O.3     1  ZINC000766421809    0.0900
     26 C26       -10.2719    0.4194   54.4625 C.2     1  ZINC000766421809   -0.2400
     27 H27       -10.5510    0.0037   57.5167 H       1  ZINC000766421809    0.0800
     28 H28       -10.8713   -1.6889   57.0686 H       1  ZINC000766421809    0.0700
     29 H29        -9.3119   -0.9379   56.6530 H       1  ZINC000766421809    0.0800
     30 H30       -14.1168    0.9414   53.1592 H       1  ZINC000766421809    0.0800
     31 H31       -13.2341    0.0811   51.8750 H       1  ZINC000766421809    0.0900
     32 H32       -14.0941   -0.8382   53.1335 H       1  ZINC000766421809    0.0900
     33 H33       -10.8919    0.6864   51.3129 H       1  ZINC000766421809    0.0900
     34 H34       -11.5195    2.1895   52.0304 H       1  ZINC000766421809    0.0900
     35 H35        -7.0669    2.4940   51.1842 H       1  ZINC000766421809    0.1200
     36 H36        -6.6434    1.7993   52.7673 H       1  ZINC000766421809    0.1200
     37 H37        -6.0868   -0.3414   51.7352 H       1  ZINC000766421809    0.1200
     38 H38        -6.6589    0.2321   50.1504 H       1  ZINC000766421809    0.1200
     39 H39        -0.3684    1.0963   50.7370 H       1  ZINC000766421809    0.1500
     40 H40         1.6318    1.0681   49.3056 H       1  ZINC000766421809    0.1500
     41 H41        -0.9773    1.0282   44.9535 H       1  ZINC000766421809    0.0800
     42 H42        -1.6678    2.6364   45.2776 H       1  ZINC000766421809    0.0800
     43 H43         0.0928    2.4429   45.1010 H       1  ZINC000766421809    0.0700
     44 H44        -2.7958    1.9321   47.3064 H       1  ZINC000766421809    0.1400
     45 H45        -9.2445    0.7483   54.5141 H       1  ZINC000766421809    0.1500
@<TRIPOS>BOND
     1     1     2    1
     2     1    27    1
     3     1    28    1
     4     1    29    1
     5     2    26    1
     6     2     3    2
     7     3     4    1
     8     4     5    1
     9     4     6    1
    10     5    30    1
    11     5    31    1
    12     5    32    1
    13     6     7    1
    14     6    26    2
    15     7     8    1
    16     7    33    1
    17     7    34    1
    18     8     9    1
    19     9    10    2
    20     9    11    1
    21    11    12    1
    22    11    35    1
    23    11    36    1
    24    12    13    1
    25    12    37    1
    26    12    38    1
    27    13    25    1
    28    13    14    2
    29    14    15    1
    30    15    16    1
    31    15    24    2
    32    16    23   ar
    33    16    17   ar
    34    17    18   ar
    35    17    39    1
    36    18    19   ar
    37    18    40    1
    38    19    20    1
    39    19    21   ar
    40    21    22    1
    41    21    23   ar
    42    22    41    1
    43    22    42    1
    44    22    43    1
    45    23    44    1
    46    24    25    1
    47    26    45    1
@<TRIPOS>SUBSTRUCTURE
     1 ZINC000766421809        1 TEMP              0 ****  ****    0 ROOT


##########                                Name:    ZINC000824084043
##########                DOCK_Rotatable_Bonds:                  11
##########                         Heavy_Atoms:                  27
##########                    Molecular_Weight:             382.547
##########                DOCK_Rotatable_Bonds:                  11
##########                       Formal_Charge:        -6.85453e-07
##########                     HBond_Acceptors:                   7
##########                        HBond_Donors:                   3
##########                         Heavy_Atoms:                  27
##########                          Grid_Score:          -35.053501
##########                     Grid_vdw_energy:          -32.365803
##########                      Grid_es_energy:           -2.687700
##########           Internal_energy_repulsive:           18.098900

@<TRIPOS>MOLECULE
ZINC000824084043
 65 66 1 0 0
SMALL
USER_CHARGES


@<TRIPOS>ATOM
      1 C1         -0.2409    4.7517   46.1393 C.3     1  ZINC000824084043   -0.1400
      2 C2         -0.1200    3.2514   45.8648 C.3     1  ZINC000824084043   -0.1000
      3 C3          1.0533    2.9995   44.9157 C.3     1  ZINC000824084043   -0.1300
      4 C4          0.1206    2.5098   47.1812 C.3     1  ZINC000824084043    0.1700
      5 H5          0.9804    2.9443   47.6912 H       1  ZINC000824084043    0.0700
      6 C6         -1.1175    2.6357   48.0712 C.3     1  ZINC000824084043   -0.1400
      7 C7         -1.0465    1.5983   49.1936 C.3     1  ZINC000824084043    0.1300
      8 N8         -1.9464    1.9924   50.2805 N.am    1  ZINC000824084043   -0.6200
      9 C9         -1.3964    2.5175   51.5327 C.3     1  ZINC000824084043    0.0800
     10 C10        -3.2800    1.8718   50.1283 C.2     1  ZINC000824084043    0.7000
     11 O11        -3.7365    1.4374   49.0885 O.2     1  ZINC000824084043   -0.5800
     12 N12        -4.1078    2.2328   51.1288 N.am    1  ZINC000824084043   -0.7500
     13 C13        -5.5574    2.1002   50.9641 C.3     1  ZINC000824084043    0.1600
     14 C14        -5.9701    0.6465   51.2126 C.3     1  ZINC000824084043   -0.1600
     15 C15        -7.4930    0.5310   51.1173 C.3     1  ZINC000824084043   -0.0100
     16 N16        -8.1170    1.3973   52.1245 N.4     1  ZINC000824084043   -0.3800
     17 H17        -7.7774    1.1450   53.0406 H       1  ZINC000824084043    0.4200
     18 C18        -9.5753    1.2256   52.0802 C.3     1  ZINC000824084043    0.0000
     19 C19       -10.1201    1.1216   53.5062 C.3     1  ZINC000824084043   -0.1200
     20 C20       -10.4177    2.5305   54.0768 C.3     1  ZINC000824084043   -0.1400
     21 C21       -11.4695    2.2390   55.1757 C.3     1  ZINC000824084043   -0.1200
     22 C22       -12.3492    1.1249   54.5715 C.3     1  ZINC000824084043   -0.1300
     23 C23       -11.4912    0.4145   53.5100 C.3     1  ZINC000824084043   -0.1100
     24 C24        -7.7839    2.8003   51.8501 C.3     1  ZINC000824084043    0.0000
     25 C25        -6.2722    3.0031   51.9736 C.3     1  ZINC000824084043   -0.1600
     26 N26         0.3810    1.0949   46.9042 N.am    1  ZINC000824084043   -0.7800
     27 C27         1.4032    0.4653   47.5165 C.2     1  ZINC000824084043    0.6600
     28 O28         1.6215   -0.7154   47.2841 O.co2   1  ZINC000824084043   -0.7200
     29 O29         2.1127    1.0748   48.3047 O.co2   1  ZINC000824084043   -0.7300
     30 H30        -0.4123    5.2800   45.2015 H       1  ZINC000824084043    0.0500
     31 H31        -1.0768    4.9311   46.8155 H       1  ZINC000824084043    0.0500
     32 H32         0.6803    5.1127   46.5967 H       1  ZINC000824084043    0.0500
     33 H33        -1.0412    2.8903   45.4075 H       1  ZINC000824084043    0.0500
     34 H34         1.9745    3.3605   45.3731 H       1  ZINC000824084043    0.0600
     35 H35         1.1394    1.9307   44.7201 H       1  ZINC000824084043    0.0700
     36 H36         0.8819    3.5278   43.9779 H       1  ZINC000824084043    0.0300
     37 H37        -1.1545    3.6360   48.5029 H       1  ZINC000824084043    0.0700
     38 H38        -2.0131    2.4643   47.4742 H       1  ZINC000824084043    0.0600
     39 H39        -1.3476    0.6244   48.8077 H       1  ZINC000824084043    0.0900
     40 H40        -0.0253    1.5401   49.5704 H       1  ZINC000824084043    0.0900
     41 H41        -1.3027    3.6012   51.4622 H       1  ZINC000824084043    0.0600
     42 H42        -2.0627    2.2633   52.3570 H       1  ZINC000824084043    0.0600
     43 H43        -0.4146    2.0787   51.7106 H       1  ZINC000824084043    0.0800
     44 H44        -3.7436    2.5805   51.9580 H       1  ZINC000824084043    0.4000
     45 H45        -5.8374    2.3919   49.9519 H       1  ZINC000824084043    0.1100
     46 H46        -5.5087    0.0040   50.4627 H       1  ZINC000824084043    0.1200
     47 H47        -5.6433    0.3402   52.2063 H       1  ZINC000824084043    0.0900
     48 H48        -7.8186    0.8373   50.1232 H       1  ZINC000824084043    0.1300
     49 H49        -7.7902   -0.5029   51.2935 H       1  ZINC000824084043    0.1300
     50 H50       -10.0270    2.0823   51.5802 H       1  ZINC000824084043    0.1300
     51 H51        -9.8174    0.3154   51.5315 H       1  ZINC000824084043    0.1300
     52 H52        -9.4149    0.5901   54.1452 H       1  ZINC000824084043    0.1000
     53 H53        -9.5188    2.9699   54.5092 H       1  ZINC000824084043    0.0700
     54 H54       -10.8340    3.1794   53.3061 H       1  ZINC000824084043    0.0800
     55 H55       -10.9830    1.8893   56.0863 H       1  ZINC000824084043    0.0700
     56 H56       -12.0662    3.1284   55.3783 H       1  ZINC000824084043    0.0800
     57 H57       -12.6428    0.4187   55.3481 H       1  ZINC000824084043    0.0700
     58 H58       -13.2344    1.5590   54.1068 H       1  ZINC000824084043    0.0700
     59 H59       -11.9600    0.5038   52.5301 H       1  ZINC000824084043    0.0700
     60 H60       -11.3685   -0.6365   53.7713 H       1  ZINC000824084043    0.0800
     61 H61        -8.1034    3.0582   50.8404 H       1  ZINC000824084043    0.1300
     62 H62        -8.2959    3.4418   52.5673 H       1  ZINC000824084043    0.1300
     63 H63        -5.9517    2.7457   52.9830 H       1  ZINC000824084043    0.0900
     64 H64        -6.0268    4.0450   51.7677 H       1  ZINC000824084043    0.1200
     65 H65        -0.1824    0.6114   46.2799 H       1  ZINC000824084043    0.3600
@<TRIPOS>BOND
     1     1     2    1
     2     1    30    1
     3     1    31    1
     4     1    32    1
     5     2     3    1
     6     2     4    1
     7     2    33    1
     8     3    34    1
     9     3    35    1
    10     3    36    1
    11     4     5    1
    12     4     6    1
    13     4    26    1
    14     6     7    1
    15     6    37    1
    16     6    38    1
    17     7     8    1
    18     7    39    1
    19     7    40    1
    20     8     9    1
    21     8    10   am
    22     9    41    1
    23     9    42    1
    24     9    43    1
    25    10    11    2
    26    10    12   am
    27    12    13    1
    28    12    44    1
    29    13    25    1
    30    13    14    1
    31    13    45    1
    32    14    15    1
    33    14    46    1
    34    14    47    1
    35    15    16    1
    36    15    48    1
    37    15    49    1
    38    16    17    1
    39    16    18    1
    40    16    24    1
    41    18    19    1
    42    18    50    1
    43    18    51    1
    44    19    23    1
    45    19    20    1
    46    19    52    1
    47    20    21    1
    48    20    53    1
    49    20    54    1
    50    21    22    1
    51    21    55    1
    52    21    56    1
    53    22    23    1
    54    22    57    1
    55    22    58    1
    56    23    59    1
    57    23    60    1
    58    24    25    1
    59    24    61    1
    60    24    62    1
    61    25    63    1
    62    25    64    1
    63    26    27   am
    64    26    65    1
    65    27    28   ar
    66    27    29   ar
@<TRIPOS>SUBSTRUCTURE
     1 ZINC000824084043        1 TEMP              0 ****  ****    0 ROOT


##########                                Name:    ZINC000058174787
##########                DOCK_Rotatable_Bonds:                   9
##########                         Heavy_Atoms:                  27
##########                    Molecular_Weight:             413.882
##########                DOCK_Rotatable_Bonds:                   9
##########                       Formal_Charge:           0.0200002
##########                     HBond_Acceptors:                  10
##########                        HBond_Donors:                   1
##########                         Heavy_Atoms:                  27
##########                          Grid_Score:          -35.048527
##########                     Grid_vdw_energy:          -32.213200
##########                      Grid_es_energy:           -2.835326
##########           Internal_energy_repulsive:           10.999944

@<TRIPOS>MOLECULE
ZINC000058174787
 47 48 1 0 0
SMALL
USER_CHARGES


@<TRIPOS>ATOM
      1 C1          0.6561    0.7963   63.4480 C.3     1  ZINC000058174787   -0.0700
      2 C2          0.4273    0.9933   61.9715 C.2     1  ZINC000058174787    0.2100
      3 N3          0.1578    2.1292   61.3885 N.2     1  ZINC000058174787   -0.4200
      4 C4          0.0180    1.9274   60.0699 C.2     1  ZINC000058174787   -0.5600
      5 S5         -0.3500    3.1611   58.8668 S.o2    1  ZINC000058174787    2.7400
      6 O6         -1.1370    4.1431   59.5269 O.2     1  ZINC000058174787   -0.9500
      7 O7          0.8744    3.4590   58.2102 O.2     1  ZINC000058174787   -0.9600
      8 N8         -1.3315    2.4612   57.7313 N.am    1  ZINC000058174787   -1.1100
      9 C9         -1.8099    3.2477   56.5918 C.3     1  ZINC000058174787    0.1300
     10 C10        -0.6782    4.1388   56.0760 C.3     1  ZINC000058174787   -0.1200
     11 C11        -1.0955    4.7800   54.7778 C.2     1  ZINC000058174787    0.4700
     12 O12        -2.1313    5.3990   54.7152 O.2     1  ZINC000058174787   -0.5000
     13 O13        -0.3166    4.6637   53.6908 O.3     1  ZINC000058174787   -0.3300
     14 C14        -0.4505    3.4461   52.9112 C.3     1  ZINC000058174787    0.0400
     15 H15        -0.8956    2.6662   53.5289 H       1  ZINC000058174787    0.1200
     16 C16         0.9302    2.9922   52.4330 C.3     1  ZINC000058174787   -0.1700
     17 C17        -1.3341    3.7078   51.7188 C.2     1  ZINC000058174787    0.4000
     18 O18        -1.0958    4.6398   50.9804 O.2     1  ZINC000058174787   -0.4200
     19 C19        -2.4856    2.8327   51.4505 C.ar    1  ZINC000058174787   -0.1600
     20 C20        -3.7461    3.1519   51.9666 C.ar    1  ZINC000058174787   -0.0600
     21 C21        -4.8205    2.3276   51.7108 C.ar    1  ZINC000058174787   -0.1200
     22 C22        -4.6546    1.1851   50.9444 C.ar    1  ZINC000058174787    0.0000
     23 Cl23       -6.0137    0.1530   50.6268 Cl      1  ZINC000058174787   -0.0500
     24 C24        -3.4089    0.8627   50.4300 C.ar    1  ZINC000058174787   -0.1200
     25 C25        -2.3266    1.6804   50.6732 C.ar    1  ZINC000058174787   -0.0400
     26 C26         0.2080    0.6166   59.8266 C.2     1  ZINC000058174787    0.0700
     27 N27         0.4730    0.0244   61.0318 N.pl3   1  ZINC000058174787   -0.4500
     28 C28         0.7466   -1.3965   61.2608 C.3     1  ZINC000058174787    0.0600
     29 H29         1.7151    0.9243   63.6719 H       1  ZINC000058174787    0.0900
     30 H30         0.0754    1.5302   64.0068 H       1  ZINC000058174787    0.1000
     31 H31         0.3432   -0.2082   63.7333 H       1  ZINC000058174787    0.0800
     32 H32        -1.5894    1.5304   57.8208 H       1  ZINC000058174787    0.4200
     33 H33        -2.1343    2.5759   55.7971 H       1  ZINC000058174787    0.0900
     34 H34        -2.6478    3.8701   56.9061 H       1  ZINC000058174787    0.0900
     35 H35        -0.4621    4.9139   56.8113 H       1  ZINC000058174787    0.1200
     36 H36         0.2142    3.5345   55.9124 H       1  ZINC000058174787    0.1200
     37 H37         1.3752    3.7722   51.8152 H       1  ZINC000058174787    0.0800
     38 H38         1.5693    2.8029   53.2954 H       1  ZINC000058174787    0.0800
     39 H39         0.8296    2.0782   51.8477 H       1  ZINC000058174787    0.0800
     40 H40        -3.8768    4.0417   52.5644 H       1  ZINC000058174787    0.1400
     41 H41        -5.7942    2.5725   52.1088 H       1  ZINC000058174787    0.1400
     42 H42        -3.2869   -0.0293   49.8335 H       1  ZINC000058174787    0.1400
     43 H43        -1.3565    1.4282   50.2714 H       1  ZINC000058174787    0.1500
     44 H44         0.1639    0.1274   58.8647 H       1  ZINC000058174787    0.1900
     45 H45         1.8184   -1.5776   61.1806 H       1  ZINC000058174787    0.0900
     46 H46         0.4044   -1.6764   62.2571 H       1  ZINC000058174787    0.1000
     47 H47         0.2205   -1.9925   60.5152 H       1  ZINC000058174787    0.0900
@<TRIPOS>BOND
     1     1     2    1
     2     1    29    1
     3     1    30    1
     4     1    31    1
     5     2    27    1
     6     2     3    2
     7     3     4    1
     8     4     5    1
     9     4    26    2
    10     5     6    2
    11     5     7    2
    12     5     8   am
    13     8     9    1
    14     8    32    1
    15     9    10    1
    16     9    33    1
    17     9    34    1
    18    10    11    1
    19    10    35    1
    20    10    36    1
    21    11    12    2
    22    11    13    1
    23    13    14    1
    24    14    15    1
    25    14    16    1
    26    14    17    1
    27    16    37    1
    28    16    38    1
    29    16    39    1
    30    17    18    2
    31    17    19    1
    32    19    25   ar
    33    19    20   ar
    34    20    21   ar
    35    20    40    1
    36    21    22   ar
    37    21    41    1
    38    22    23    1
    39    22    24   ar
    40    24    25   ar
    41    24    42    1
    42    25    43    1
    43    26    27    1
    44    26    44    1
    45    27    28    1
    46    28    45    1
    47    28    46    1
    48    28    47    1
@<TRIPOS>SUBSTRUCTURE
     1 ZINC000058174787        1 TEMP              0 ****  ****    0 ROOT


##########                                Name:    ZINC000552360217
##########                DOCK_Rotatable_Bonds:                  13
##########                         Heavy_Atoms:                  27
##########                    Molecular_Weight:             401.484
##########                DOCK_Rotatable_Bonds:                  13
##########                       Formal_Charge:          -0.0100002
##########                     HBond_Acceptors:                  10
##########                        HBond_Donors:                   3
##########                         Heavy_Atoms:                  27
##########                          Grid_Score:          -35.045937
##########                     Grid_vdw_energy:          -32.808197
##########                      Grid_es_energy:           -2.237739
##########           Internal_energy_repulsive:           15.547707

@<TRIPOS>MOLECULE
ZINC000552360217
 54 54 1 0 0
SMALL
USER_CHARGES


@<TRIPOS>ATOM
      1 C1          2.2389    3.6136   48.6443 C.3     1  ZINC000552360217    0.0800
      2 N2          2.7771    2.5754   49.5268 N.am    1  ZINC000552360217   -1.0000
      3 C3          4.1101    2.7320   50.1140 C.3     1  ZINC000552360217    0.0900
      4 S4          1.8787    1.2250   49.8607 S.o2    1  ZINC000552360217    2.7000
      5 O5          1.5046    0.6717   48.6064 O.2     1  ZINC000552360217   -0.9500
      6 O6          2.5982    0.4981   50.8472 O.2     1  ZINC000552360217   -0.9500
      7 C7          0.3889    1.7668   50.6297 C.ar    1  ZINC000552360217   -0.6900
      8 C8          0.4438    2.6294   51.7098 C.ar    1  ZINC000552360217    0.0100
      9 C9         -0.7216    3.0601   52.3192 C.ar    1  ZINC000552360217   -0.1400
     10 C10        -1.9467    2.6311   51.8526 C.ar    1  ZINC000552360217   -0.0300
     11 C11        -2.0092    1.7606   50.7632 C.ar    1  ZINC000552360217   -0.1600
     12 C12        -3.3188    1.2970   50.2575 C.2     1  ZINC000552360217    0.5600
     13 O13        -3.5944    1.4211   49.0801 O.2     1  ZINC000552360217   -0.5300
     14 N14        -4.2073    0.7367   51.1020 N.am    1  ZINC000552360217   -0.7100
     15 C15        -5.5044    0.2757   50.6006 C.3     1  ZINC000552360217    0.1000
     16 C16        -6.5226    1.3758   50.7554 C.2     1  ZINC000552360217    0.5100
     17 O17        -6.6502    2.2108   49.8851 O.2     1  ZINC000552360217   -0.5400
     18 N18        -7.2913    1.4319   51.8611 N.am    1  ZINC000552360217   -0.7200
     19 C19        -8.2823    2.5005   52.0108 C.3     1  ZINC000552360217    0.1400
     20 C20        -8.8592    2.4660   53.4274 C.3     1  ZINC000552360217    0.1000
     21 C21        -9.7238    3.7075   53.6561 C.3     1  ZINC000552360217   -0.1800
     22 C22        -9.7152    1.2096   53.5991 C.3     1  ZINC000552360217   -0.1800
     23 O23        -7.7910    2.4481   54.3764 O.3     1  ZINC000552360217   -0.3700
     24 C24        -6.8056    3.4604   54.1617 C.3     1  ZINC000552360217    0.0600
     25 C25        -5.7988    3.4447   55.3137 C.3     1  ZINC000552360217    0.0800
     26 O26        -6.4869    3.6443   56.5502 O.3     1  ZINC000552360217   -0.5700
     27 C27        -0.8303    1.3341   50.1498 C.ar    1  ZINC000552360217    0.0400
     28 H28         2.5188    3.3953   47.6137 H       1  ZINC000552360217    0.0600
     29 H29         1.1524    3.6350   48.7289 H       1  ZINC000552360217    0.0900
     30 H30         2.6450    4.5828   48.9337 H       1  ZINC000552360217    0.0800
     31 H31         4.5447    3.6752   49.7826 H       1  ZINC000552360217    0.0800
     32 H32         4.0307    2.7307   51.2011 H       1  ZINC000552360217    0.0700
     33 H33         4.7468    1.9067   49.7952 H       1  ZINC000552360217    0.0600
     34 H34         1.4006    2.9681   52.0792 H       1  ZINC000552360217    0.1500
     35 H35        -0.6717    3.7333   53.1622 H       1  ZINC000552360217    0.1400
     36 H36        -2.8554    2.9676   52.3293 H       1  ZINC000552360217    0.1400
     37 H37        -3.9880    0.6386   52.0418 H       1  ZINC000552360217    0.4100
     38 H38        -5.4133    0.0105   49.5472 H       1  ZINC000552360217    0.1000
     39 H39        -5.8239   -0.5978   51.1689 H       1  ZINC000552360217    0.1000
     40 H40        -7.1883    0.7648   52.5576 H       1  ZINC000552360217    0.4100
     41 H41        -7.8058    3.4650   51.8358 H       1  ZINC000552360217    0.0800
     42 H42        -9.0851    2.3553   51.2878 H       1  ZINC000552360217    0.0900
     43 H43       -10.5386    3.7211   52.9322 H       1  ZINC000552360217    0.0700
     44 H44       -10.1348    3.6830   54.6654 H       1  ZINC000552360217    0.0700
     45 H45        -9.1141    4.6026   53.5338 H       1  ZINC000552360217    0.0700
     46 H46        -9.0992    0.3252   53.4362 H       1  ZINC000552360217    0.0600
     47 H47       -10.1262    1.1851   54.6084 H       1  ZINC000552360217    0.0700
     48 H48       -10.5300    1.2234   52.8752 H       1  ZINC000552360217    0.0700
     49 H49        -6.2863    3.2686   53.2227 H       1  ZINC000552360217    0.0600
     50 H50        -7.2904    4.4356   54.1161 H       1  ZINC000552360217    0.0700
     51 H51        -5.2855    2.4834   55.3345 H       1  ZINC000552360217    0.0600
     52 H52        -5.0703    4.2427   55.1703 H       1  ZINC000552360217    0.0500
     53 H53        -5.9134    3.6164   57.3283 H       1  ZINC000552360217    0.3800
     54 H54        -0.8719    0.6607   49.3066 H       1  ZINC000552360217    0.1500
@<TRIPOS>BOND
     1     1     2    1
     2     1    28    1
     3     1    29    1
     4     1    30    1
     5     2     3    1
     6     2     4   am
     7     3    31    1
     8     3    32    1
     9     3    33    1
    10     4     5    2
    11     4     6    2
    12     4     7    1
    13     7    27   ar
    14     7     8   ar
    15     8     9   ar
    16     8    34    1
    17     9    10   ar
    18     9    35    1
    19    10    11   ar
    20    10    36    1
    21    11    12    1
    22    11    27   ar
    23    12    13    2
    24    12    14   am
    25    14    15    1
    26    14    37    1
    27    15    16    1
    28    15    38    1
    29    15    39    1
    30    16    17    2
    31    16    18   am
    32    18    19    1
    33    18    40    1
    34    19    20    1
    35    19    41    1
    36    19    42    1
    37    20    21    1
    38    20    22    1
    39    20    23    1
    40    21    43    1
    41    21    44    1
    42    21    45    1
    43    22    46    1
    44    22    47    1
    45    22    48    1
    46    23    24    1
    47    24    25    1
    48    24    49    1
    49    24    50    1
    50    25    26    1
    51    25    51    1
    52    25    52    1
    53    26    53    1
    54    27    54    1
@<TRIPOS>SUBSTRUCTURE
     1 ZINC000552360217        1 TEMP              0 ****  ****    0 ROOT


##########                                Name:    ZINC001707804910
##########                DOCK_Rotatable_Bonds:                   4
##########                         Heavy_Atoms:                  26
##########                    Molecular_Weight:             358.403
##########                DOCK_Rotatable_Bonds:                   4
##########                       Formal_Charge:          -0.0399996
##########                     HBond_Acceptors:                  10
##########                        HBond_Donors:                   0
##########                         Heavy_Atoms:                  26
##########                          Grid_Score:          -34.982082
##########                     Grid_vdw_energy:          -34.620419
##########                      Grid_es_energy:           -0.361664
##########           Internal_energy_repulsive:           10.216063

@<TRIPOS>MOLECULE
ZINC001707804910
 48 51 1 0 0
SMALL
USER_CHARGES


@<TRIPOS>ATOM
      1 C1          0.3908    7.3001   47.9191 C.3     1  ZINC001707804910   -0.0700
      2 C2          0.2240    6.0987   47.0248 C.2     1  ZINC001707804910    0.0700
      3 N3          0.5627    6.0287   45.7630 N.2     1  ZINC001707804910   -0.2800
      4 N4          0.2451    4.7470   45.2950 N.pl3   1  ZINC001707804910   -0.3700
      5 C5          0.4610    4.2482   43.9346 C.3     1  ZINC001707804910    0.0900
      6 C6         -0.2947    4.0530   46.3187 C.2     1  ZINC001707804910    0.0500
      7 C7         -0.7826    2.6282   46.2667 C.3     1  ZINC001707804910    0.1800
      8 N8          0.1787    1.7575   46.9477 N.pl3   1  ZINC001707804910   -0.4600
      9 C9          1.1397    0.9762   46.3681 C.2     1  ZINC001707804910    0.1900
     10 C10         1.4142    0.8456   44.8920 C.3     1  ZINC001707804910   -0.0700
     11 N11         1.7746    0.3663   47.3285 N.2     1  ZINC001707804910   -0.2800
     12 N12         1.2838    0.7063   48.4668 N.2     1  ZINC001707804910   -0.3000
     13 C13         0.3049    1.5625   48.2923 C.2     1  ZINC001707804910    0.3500
     14 N14        -0.4617    2.1508   49.2856 N.3     1  ZINC001707804910   -0.4600
     15 C15         0.2283    2.1011   50.5827 C.3     1  ZINC001707804910    0.0200
     16 C16        -0.6248    2.8128   51.6360 C.3     1  ZINC001707804910    0.0700
     17 O17        -1.9174    2.2030   51.6867 O.3     1  ZINC001707804910   -0.3600
     18 C18        -2.6180    2.2342   50.4404 C.3     1  ZINC001707804910    0.2000
     19 H19        -2.7800    3.2693   50.1396 H       1  ZINC001707804910    0.1000
     20 C20        -3.9472    1.5406   50.5927 C.2     1  ZINC001707804910    0.1600
     21 N21        -4.2080    0.2998   50.2938 N.2     1  ZINC001707804910   -0.2500
     22 N22        -5.4430    0.0486   50.5532 N.2     1  ZINC001707804910   -0.2900
     23 C23        -6.0120    1.1206   51.0263 C.2     1  ZINC001707804910    0.1700
     24 C24        -7.4510    1.2515   51.4545 C.3     1  ZINC001707804910   -0.0600
     25 O25        -5.0793    2.0870   51.0671 O.3     1  ZINC001707804910   -0.2200
     26 C26        -1.7850    1.5167   49.3748 C.3     1  ZINC001707804910    0.0400
     27 C27        -0.3143    4.8640   47.4018 C.2     1  ZINC001707804910   -0.2300
     28 H28         1.3682    7.2621   48.3999 H       1  ZINC001707804910    0.0800
     29 H29         0.3138    8.2098   47.3237 H       1  ZINC001707804910    0.0700
     30 H30        -0.3891    7.2972   48.6807 H       1  ZINC001707804910    0.0800
     31 H31         1.4864    3.8914   43.8368 H       1  ZINC001707804910    0.0800
     32 H32        -0.2294    3.4289   43.7341 H       1  ZINC001707804910    0.0900
     33 H33         0.2868    5.0532   43.2205 H       1  ZINC001707804910    0.0900
     34 H34        -1.7512    2.5575   46.7618 H       1  ZINC001707804910    0.1100
     35 H35        -0.8825    2.3161   45.2271 H       1  ZINC001707804910    0.1200
     36 H36         2.0652    1.6585   44.5703 H       1  ZINC001707804910    0.0900
     37 H37         1.9016   -0.1094   44.6962 H       1  ZINC001707804910    0.1000
     38 H38         0.4743    0.8934   44.3421 H       1  ZINC001707804910    0.0700
     39 H39         0.3771    1.0620   50.8762 H       1  ZINC001707804910    0.0700
     40 H40         1.1947    2.5986   50.5001 H       1  ZINC001707804910    0.0900
     41 H41        -0.1443    2.7288   52.6109 H       1  ZINC001707804910    0.1200
     42 H42        -0.7287    3.8647   51.3702 H       1  ZINC001707804910    0.0700
     43 H43        -7.5401    0.9988   52.5111 H       1  ZINC001707804910    0.1000
     44 H44        -7.7853    2.2769   51.2967 H       1  ZINC001707804910    0.1000
     45 H45        -8.0685    0.5734   50.8655 H       1  ZINC001707804910    0.1100
     46 H46        -2.2885    1.5876   48.4106 H       1  ZINC001707804910    0.1000
     47 H47        -1.6685    0.4682   49.6490 H       1  ZINC001707804910    0.0800
     48 H48        -0.6858    4.6055   48.3824 H       1  ZINC001707804910    0.1500
@<TRIPOS>BOND
     1     1     2    1
     2     1    28    1
     3     1    29    1
     4     1    30    1
     5     2    27    1
     6     2     3    2
     7     3     4    1
     8     4     5    1
     9     4     6    1
    10     5    31    1
    11     5    32    1
    12     5    33    1
    13     6     7    1
    14     6    27    2
    15     7     8    1
    16     7    34    1
    17     7    35    1
    18     8    13    1
    19     8     9    1
    20     9    10    1
    21     9    11    2
    22    10    36    1
    23    10    37    1
    24    10    38    1
    25    11    12    1
    26    12    13    2
    27    13    14    1
    28    14    26    1
    29    14    15    1
    30    15    16    1
    31    15    39    1
    32    15    40    1
    33    16    17    1
    34    16    41    1
    35    16    42    1
    36    17    18    1
    37    18    19    1
    38    18    20    1
    39    18    26    1
    40    20    25    1
    41    20    21    2
    42    21    22    1
    43    22    23    2
    44    23    24    1
    45    23    25    1
    46    24    43    1
    47    24    44    1
    48    24    45    1
    49    26    46    1
    50    26    47    1
    51    27    48    1
@<TRIPOS>SUBSTRUCTURE
     1 ZINC001707804910        1 TEMP              0 ****  ****    0 ROOT


##########                                Name:    ZINC000499369364
##########                DOCK_Rotatable_Bonds:                   9
##########                         Heavy_Atoms:                  25
##########                    Molecular_Weight:             384.527
##########                DOCK_Rotatable_Bonds:                   9
##########                       Formal_Charge:        -5.88596e-07
##########                     HBond_Acceptors:                  10
##########                        HBond_Donors:                   1
##########                         Heavy_Atoms:                  25
##########                          Grid_Score:          -34.976044
##########                     Grid_vdw_energy:          -34.808643
##########                      Grid_es_energy:           -0.167400
##########           Internal_energy_repulsive:           21.346281

@<TRIPOS>MOLECULE
ZINC000499369364
 49 51 1 0 0
SMALL
USER_CHARGES


@<TRIPOS>ATOM
      1 C1          0.0531    5.7736   48.3045 C.3     1  ZINC000499369364   -0.1500
      2 C2          0.5604    5.4024   46.9095 C.3     1  ZINC000499369364   -0.1000
      3 C3          2.0723    5.1739   46.9608 C.3     1  ZINC000499369364   -0.1500
      4 C4         -0.1332    4.1226   46.4385 C.3     1  ZINC000499369364    0.1500
      5 H5         -1.2051    4.2023   46.6200 H       1  ZINC000499369364    0.0900
      6 C6          0.1175    3.9278   44.9419 C.3     1  ZINC000499369364   -0.1700
      7 N7          0.4032    2.9765   47.1768 N.am    1  ZINC000499369364   -0.7200
      8 C8         -0.3792    1.9068   47.4220 C.2     1  ZINC000499369364    0.5100
      9 O9         -1.5269    1.8924   47.0302 O.2     1  ZINC000499369364   -0.5100
     10 C10         0.1720    0.7286   48.1829 C.3     1  ZINC000499369364    0.1200
     11 H11        -0.6051   -0.0318   48.2605 H       1  ZINC000499369364    0.1200
     12 C12         1.3647    0.1417   47.3943 C.3     1  ZINC000499369364   -0.0800
     13 S13         2.7907    0.9208   48.2621 S.3     1  ZINC000499369364   -0.2400
     14 C14         1.9433    0.9487   49.8959 C.3     1  ZINC000499369364    0.1400
     15 N15         0.5347    1.1652   49.5227 N.am    1  ZINC000499369364   -0.6000
     16 C16        -0.3577    1.7257   50.3628 C.2     1  ZINC000499369364    0.5600
     17 O17        -0.0111    2.0736   51.4718 O.2     1  ZINC000499369364   -0.5000
     18 C18        -1.7863    1.9202   49.9242 C.3     1  ZINC000499369364   -0.1500
     19 S19        -2.8260    2.2271   51.3738 S.3     1  ZINC000499369364    0.1300
     20 C20        -4.2892    1.3747   50.8868 C.2     1  ZINC000499369364    0.2000
     21 N21        -4.3685    0.1243   50.4861 N.2     1  ZINC000499369364   -0.3400
     22 N22        -5.5840   -0.1821   50.2065 N.2     1  ZINC000499369364   -0.0300
     23 N23        -6.3578    0.8298   50.4035 N.2     1  ZINC000499369364   -0.0800
     24 N24        -5.5444    1.8816   50.8601 N.pl3   1  ZINC000499369364   -0.3300
     25 C25        -5.9636    3.2381   51.2210 C.3     1  ZINC000499369364    0.0500
     26 C26        -6.9756    3.9316   50.3066 C.3     1  ZINC000499369364   -0.1500
     27 C27        -7.4084    3.4308   51.6861 C.3     1  ZINC000499369364   -0.1600
     28 H28         0.5472    6.6853   48.6402 H       1  ZINC000499369364    0.0600
     29 H29        -1.0240    5.9364   48.2680 H       1  ZINC000499369364    0.0600
     30 H30         0.2747    4.9634   48.9992 H       1  ZINC000499369364    0.0600
     31 H31         0.3388    6.2126   46.2149 H       1  ZINC000499369364    0.0800
     32 H32         2.5665    6.0856   47.2964 H       1  ZINC000499369364    0.0600
     33 H33         2.2940    4.3637   47.6555 H       1  ZINC000499369364    0.0600
     34 H34         2.4337    4.9093   45.9670 H       1  ZINC000499369364    0.0500
     35 H35         1.1893    3.8481   44.7604 H       1  ZINC000499369364    0.0600
     36 H36        -0.3766    3.0160   44.6063 H       1  ZINC000499369364    0.0600
     37 H37        -0.2815    4.7805   44.3925 H       1  ZINC000499369364    0.0700
     38 H38         1.3215    2.9875   47.4891 H       1  ZINC000499369364    0.4000
     39 H39         1.3974   -0.9441   47.4843 H       1  ZINC000499369364    0.1200
     40 H40         1.3297    0.4453   46.3480 H       1  ZINC000499369364    0.1300
     41 H41         2.0661   -0.0037   50.4115 H       1  ZINC000499369364    0.1100
     42 H42         2.3117    1.7716   50.5086 H       1  ZINC000499369364    0.1200
     43 H43        -1.8458    2.7727   49.2475 H       1  ZINC000499369364    0.1300
     44 H44        -2.1341    1.0237   49.4109 H       1  ZINC000499369364    0.1300
     45 H45        -5.1980    3.8586   51.6867 H       1  ZINC000499369364    0.1600
     46 H46        -6.8758    5.0084   50.1705 H       1  ZINC000499369364    0.1200
     47 H47        -7.3295    3.3784   49.4367 H       1  ZINC000499369364    0.1200
     48 H48        -8.0470    2.5483   51.7236 H       1  ZINC000499369364    0.1100
     49 H49        -7.5933    4.1783   52.4576 H       1  ZINC000499369364    0.1200
@<TRIPOS>BOND
     1     1     2    1
     2     1    28    1
     3     1    29    1
     4     1    30    1
     5     2     3    1
     6     2     4    1
     7     2    31    1
     8     3    32    1
     9     3    33    1
    10     3    34    1
    11     4     5    1
    12     4     6    1
    13     4     7    1
    14     6    35    1
    15     6    36    1
    16     6    37    1
    17     7     8   am
    18     7    38    1
    19     8     9    2
    20     8    10    1
    21    10    11    1
    22    10    15    1
    23    10    12    1
    24    12    13    1
    25    12    39    1
    26    12    40    1
    27    13    14    1
    28    14    15    1
    29    14    41    1
    30    14    42    1
    31    15    16   am
    32    16    17    2
    33    16    18    1
    34    18    19    1
    35    18    43    1
    36    18    44    1
    37    19    20    1
    38    20    24    1
    39    20    21    2
    40    21    22    1
    41    22    23    2
    42    23    24    1
    43    24    25    1
    44    25    27    1
    45    25    26    1
    46    25    45    1
    47    26    27    1
    48    26    46    1
    49    26    47    1
    50    27    48    1
    51    27    49    1
@<TRIPOS>SUBSTRUCTURE
     1 ZINC000499369364        1 TEMP              0 ****  ****    0 ROOT


##########                                Name:    ZINC000428748914
##########                DOCK_Rotatable_Bonds:                  11
##########                         Heavy_Atoms:                  30
##########                    Molecular_Weight:             413.492
##########                DOCK_Rotatable_Bonds:                  11
##########                       Formal_Charge:           0.0199993
##########                     HBond_Acceptors:                   7
##########                        HBond_Donors:                   3
##########                         Heavy_Atoms:                  30
##########                          Grid_Score:          -34.975426
##########                     Grid_vdw_energy:          -33.200912
##########                      Grid_es_energy:           -1.774514
##########           Internal_energy_repulsive:           11.199180

@<TRIPOS>MOLECULE
ZINC000428748914
 58 61 1 0 0
SMALL
USER_CHARGES


@<TRIPOS>ATOM
      1 O1         -2.5304    4.0513   52.9256 O.2     1  ZINC000428748914   -0.5900
      2 C2         -1.4231    3.5586   53.0225 C.2     1  ZINC000428748914    0.7000
      3 N3         -0.8949    3.3220   54.2397 N.am    1  ZINC000428748914   -0.7400
      4 C4         -1.6527    3.6639   55.4460 C.3     1  ZINC000428748914    0.1900
      5 C5         -0.8430    3.3069   56.6659 C.ar    1  ZINC000428748914   -0.2000
      6 C6         -0.1578    4.2905   57.3653 C.ar    1  ZINC000428748914   -0.0200
      7 C7          0.5738    3.9194   58.4802 C.ar    1  ZINC000428748914   -0.1900
      8 C8          0.5975    2.5835   58.8591 C.ar    1  ZINC000428748914    0.3300
      9 O9          1.3105    2.2070   59.9502 O.3     1  ZINC000428748914   -0.3000
     10 C10         1.5036    0.8049   60.1469 C.3     1  ZINC000428748914    0.0800
     11 C11         2.6360    0.5522   61.1730 C.3     1  ZINC000428748914   -0.1400
     12 C12         2.3055   -0.8644   61.7050 C.3     1  ZINC000428748914   -0.1200
     13 C13         0.7653   -0.8872   61.7887 C.3     1  ZINC000428748914   -0.1200
     14 C14         0.2554    0.1741   60.7981 C.3     1  ZINC000428748914   -0.1200
     15 N15        -0.0689    1.6747   58.1664 N.ar    1  ZINC000428748914   -0.5400
     16 C16        -0.7795    1.9986   57.1031 C.ar    1  ZINC000428748914    0.1600
     17 N17        -0.7260    3.2440   51.9127 N.am    1  ZINC000428748914   -0.7400
     18 C18        -1.3001    3.5012   50.5896 C.3     1  ZINC000428748914    0.1800
     19 C19        -0.3501    2.9770   49.5109 C.3     1  ZINC000428748914   -0.1300
     20 C20        -0.0010    1.4903   49.6048 C.3     1  ZINC000428748914    0.1100
     21 O21        -1.2008    0.7274   49.7486 O.3     1  ZINC000428748914   -0.5700
     22 C22         0.7363    3.9275   49.0039 C.3     1  ZINC000428748914   -0.1400
     23 C23        -0.4611    3.5897   48.1134 C.3     1  ZINC000428748914   -0.1000
     24 H24        -1.2110    4.3662   47.9625 H       1  ZINC000428748914    0.1200
     25 C25        -0.2176    2.6832   46.9344 C.ar    1  ZINC000428748914   -0.0700
     26 C26        -1.1650    1.7406   46.5805 C.ar    1  ZINC000428748914   -0.0900
     27 C27        -0.9428    0.9088   45.4995 C.ar    1  ZINC000428748914   -0.1500
     28 C28         0.2291    1.0202   44.7704 C.ar    1  ZINC000428748914    0.1000
     29 F29         0.4472    0.2079   43.7131 F       1  ZINC000428748914   -0.1400
     30 C30         1.1770    1.9650   45.1254 C.ar    1  ZINC000428748914   -0.1500
     31 C31         0.9504    2.7988   46.2040 C.ar    1  ZINC000428748914   -0.0800
     32 H32        -0.0131    2.9253   54.3171 H       1  ZINC000428748914    0.4000
     33 H33        -1.8649    4.7330   55.4509 H       1  ZINC000428748914    0.0800
     34 H34        -2.5899    3.1074   55.4563 H       1  ZINC000428748914    0.0800
     35 H35        -0.1943    5.3218   57.0469 H       1  ZINC000428748914    0.1400
     36 H36         1.1194    4.6588   59.0478 H       1  ZINC000428748914    0.1400
     37 H37         1.7283    0.3150   59.1994 H       1  ZINC000428748914    0.1000
     38 H38         3.6101    0.5637   60.6840 H       1  ZINC000428748914    0.0700
     39 H39         2.5983    1.2858   61.9784 H       1  ZINC000428748914    0.0800
     40 H40         2.6611   -1.6253   61.0103 H       1  ZINC000428748914    0.0700
     41 H41         2.7435   -1.0130   62.6920 H       1  ZINC000428748914    0.0700
     42 H42         0.3906   -1.8713   61.5073 H       1  ZINC000428748914    0.0700
     43 H43         0.4427   -0.6396   62.8000 H       1  ZINC000428748914    0.0700
     44 H44        -0.3147    0.9368   61.3286 H       1  ZINC000428748914    0.0800
     45 H45        -0.3667   -0.2949   60.0358 H       1  ZINC000428748914    0.0700
     46 H46        -1.3111    1.2294   56.5624 H       1  ZINC000428748914    0.1600
     47 H47         0.1558    2.8473   51.9900 H       1  ZINC000428748914    0.3900
     48 H48        -2.2609    2.9935   50.5056 H       1  ZINC000428748914    0.0700
     49 H49        -1.4431    4.5737   50.4579 H       1  ZINC000428748914    0.0900
     50 H50         0.5195    1.1813   48.6983 H       1  ZINC000428748914    0.0500
     51 H51         0.6423    1.3219   50.4683 H       1  ZINC000428748914    0.0600
     52 H52        -1.0715   -0.1332   50.1701 H       1  ZINC000428748914    0.3800
     53 H53         0.7742    4.9263   49.4388 H       1  ZINC000428748914    0.1100
     54 H54         1.7001    3.4939   48.7372 H       1  ZINC000428748914    0.1100
     55 H55        -2.0789    1.6540   47.1495 H       1  ZINC000428748914    0.1400
     56 H56        -1.6826    0.1721   45.2237 H       1  ZINC000428748914    0.1400
     57 H57         2.0915    2.0525   44.5576 H       1  ZINC000428748914    0.1400
     58 H58         1.6895    3.5360   46.4808 H       1  ZINC000428748914    0.1300
@<TRIPOS>BOND
     1     1     2    2
     2     2     3   am
     3     2    17   am
     4     3     4    1
     5     3    32    1
     6     4     5    1
     7     4    33    1
     8     4    34    1
     9     5    16   ar
    10     5     6   ar
    11     6     7   ar
    12     6    35    1
    13     7     8   ar
    14     7    36    1
    15     8     9    1
    16     8    15   ar
    17     9    10    1
    18    10    14    1
    19    10    11    1
    20    10    37    1
    21    11    12    1
    22    11    38    1
    23    11    39    1
    24    12    13    1
    25    12    40    1
    26    12    41    1
    27    13    14    1
    28    13    42    1
    29    13    43    1
    30    14    44    1
    31    14    45    1
    32    15    16   ar
    33    16    46    1
    34    17    18    1
    35    17    47    1
    36    18    19    1
    37    18    48    1
    38    18    49    1
    39    19    23    1
    40    19    20    1
    41    19    22    1
    42    20    21    1
    43    20    50    1
    44    20    51    1
    45    21    52    1
    46    22    23    1
    47    22    53    1
    48    22    54    1
    49    23    24    1
    50    23    25    1
    51    25    31   ar
    52    25    26   ar
    53    26    27   ar
    54    26    55    1
    55    27    28   ar
    56    27    56    1
    57    28    29    1
    58    28    30   ar
    59    30    31   ar
    60    30    57    1
    61    31    58    1
@<TRIPOS>SUBSTRUCTURE
     1 ZINC000428748914        1 TEMP              0 ****  ****    0 ROOT


##########                                Name:    ZINC000426805817
##########                DOCK_Rotatable_Bonds:                   6
##########                         Heavy_Atoms:                  26
##########                    Molecular_Weight:             412.286
##########                DOCK_Rotatable_Bonds:                   6
##########                       Formal_Charge:          -0.0100001
##########                     HBond_Acceptors:                   5
##########                        HBond_Donors:                   4
##########                         Heavy_Atoms:                  26
##########                          Grid_Score:          -34.965031
##########                     Grid_vdw_energy:          -24.051691
##########                      Grid_es_energy:          -10.913340
##########           Internal_energy_repulsive:            4.618034

@<TRIPOS>MOLECULE
ZINC000426805817
 44 47 1 0 0
SMALL
USER_CHARGES


@<TRIPOS>ATOM
      1 O1         -8.8131   -1.1943   66.2696 O.co2   1  ZINC000426805817   -0.6300
      2 C2         -8.6420   -0.0028   66.0761 C.2     1  ZINC000426805817    0.5000
      3 O3         -8.0008    0.6585   66.8750 O.co2   1  ZINC000426805817   -0.6800
      4 C4         -9.2177    0.6515   64.8468 C.3     1  ZINC000426805817   -0.0500
      5 H5         -8.8318    1.6673   64.7612 H       1  ZINC000426805817    0.1300
      6 C6         -8.8187   -0.1518   63.6072 C.3     1  ZINC000426805817   -0.0500
      7 C7         -8.5754    0.7893   62.4556 C.2     1  ZINC000426805817   -0.1900
      8 C8         -8.2075    2.0775   62.5410 C.2     1  ZINC000426805817    0.0500
      9 N9         -8.0821    2.6110   61.2874 N.pl3   1  ZINC000426805817   -0.5900
     10 C10        -8.3738    1.6545   60.3400 C.ar    1  ZINC000426805817    0.1100
     11 C11        -8.4004    1.6631   58.9496 C.ar    1  ZINC000426805817   -0.1200
     12 C12        -8.7400    0.5191   58.2615 C.ar    1  ZINC000426805817   -0.0700
     13 C13        -9.0577   -0.6490   58.9424 C.ar    1  ZINC000426805817   -0.1100
     14 Br14       -9.5204   -2.2057   57.9737 Br      1  ZINC000426805817   -0.0400
     15 C15        -9.0372   -0.6799   60.3190 C.ar    1  ZINC000426805817   -0.0400
     16 C16        -8.6893    0.4700   61.0304 C.ar    1  ZINC000426805817   -0.1000
     17 N17       -10.6823    0.6916   64.9538 N.4     1  ZINC000426805817   -0.4800
     18 H18       -11.0870    0.0780   64.2625 H       1  ZINC000426805817    0.4000
     19 H19       -10.9606    0.3899   65.8755 H       1  ZINC000426805817    0.4200
     20 C20       -11.1526    2.0644   64.7252 C.3     1  ZINC000426805817    0.0400
     21 C21       -12.3645    2.0377   63.8299 C.ar    1  ZINC000426805817   -0.1600
     22 C22       -13.6296    1.8420   64.3739 C.ar    1  ZINC000426805817    0.1100
     23 N23       -14.0902    1.6475   65.6568 N.pl3   1  ZINC000426805817   -0.5900
     24 C24       -15.4511    1.5050   65.6459 C.2     1  ZINC000426805817    0.0600
     25 C25       -15.9111    1.5994   64.3883 C.2     1  ZINC000426805817   -0.2000
     26 C26       -14.7500    1.8205   63.5230 C.ar    1  ZINC000426805817   -0.1100
     27 C27       -14.5837    1.9945   62.1480 C.ar    1  ZINC000426805817   -0.0400
     28 C28       -13.3315    2.1852   61.6348 C.ar    1  ZINC000426805817   -0.1500
     29 C29       -12.2238    2.2125   62.4705 C.ar    1  ZINC000426805817   -0.0700
     30 H30        -7.9083   -0.7137   63.8159 H       1  ZINC000426805817    0.1200
     31 H31        -9.6210   -0.8428   63.3484 H       1  ZINC000426805817    0.0900
     32 H32        -8.0362    2.6134   63.4629 H       1  ZINC000426805817    0.1700
     33 H33        -7.8259    3.5265   61.0945 H       1  ZINC000426805817    0.4200
     34 H34        -8.1555    2.5660   58.4099 H       1  ZINC000426805817    0.1300
     35 H35        -8.7597    0.5307   57.1818 H       1  ZINC000426805817    0.1400
     36 H36        -9.2847   -1.5898   60.8455 H       1  ZINC000426805817    0.1400
     37 H37       -11.4154    2.5220   65.6789 H       1  ZINC000426805817    0.1500
     38 H38       -10.3621    2.6448   64.2493 H       1  ZINC000426805817    0.1300
     39 H39       -13.5329    1.6156   66.4501 H       1  ZINC000426805817    0.4300
     40 H40       -16.0642    1.3407   66.5196 H       1  ZINC000426805817    0.1800
     41 H41       -16.9418    1.5259   64.0742 H       1  ZINC000426805817    0.1500
     42 H42       -15.4415    1.9782   61.4920 H       1  ZINC000426805817    0.1300
     43 H43       -13.2034    2.3198   60.5709 H       1  ZINC000426805817    0.1300
     44 H44       -11.2406    2.3642   62.0500 H       1  ZINC000426805817    0.1300
@<TRIPOS>BOND
     1     1     2   ar
     2     2     3   ar
     3     2     4    1
     4     4     5    1
     5     4     6    1
     6     4    17    1
     7     6     7    1
     8     6    30    1
     9     6    31    1
    10     7    16    1
    11     7     8    2
    12     8     9    1
    13     8    32    1
    14     9    10    1
    15     9    33    1
    16    10    16   ar
    17    10    11   ar
    18    11    12   ar
    19    11    34    1
    20    12    13   ar
    21    12    35    1
    22    13    14    1
    23    13    15   ar
    24    15    16   ar
    25    15    36    1
    26    17    18    1
    27    17    19    1
    28    17    20    1
    29    20    21    1
    30    20    37    1
    31    20    38    1
    32    21    29   ar
    33    21    22   ar
    34    22    26   ar
    35    22    23    1
    36    23    24    1
    37    23    39    1
    38    24    25    2
    39    24    40    1
    40    25    26    1
    41    25    41    1
    42    26    27   ar
    43    27    28   ar
    44    27    42    1
    45    28    29   ar
    46    28    43    1
    47    29    44    1
@<TRIPOS>SUBSTRUCTURE
     1 ZINC000426805817        1 TEMP              0 ****  ****    0 ROOT


##########                                Name:    ZINC001513543414
##########                DOCK_Rotatable_Bonds:                   6
##########                         Heavy_Atoms:                  26
##########                    Molecular_Weight:             364.488
##########                DOCK_Rotatable_Bonds:                   6
##########                       Formal_Charge:         -0.00999974
##########                     HBond_Acceptors:                   7
##########                        HBond_Donors:                   0
##########                         Heavy_Atoms:                  26
##########                          Grid_Score:          -34.901600
##########                     Grid_vdw_energy:          -34.000278
##########                      Grid_es_energy:           -0.901321
##########           Internal_energy_repulsive:           17.489912

@<TRIPOS>MOLECULE
ZINC001513543414
 58 61 1 0 0
SMALL
USER_CHARGES


@<TRIPOS>ATOM
      1 C1         -6.8178    4.6082   50.3718 C.3     1  ZINC001513543414   -0.1500
      2 C2         -7.0051    3.1433   49.9723 C.3     1  ZINC001513543414   -0.1200
      3 C3         -6.1473    2.2547   50.8751 C.3     1  ZINC001513543414    0.1100
      4 C4         -6.5093    2.5013   52.3411 C.3     1  ZINC001513543414   -0.1500
      5 C5         -6.3768    0.7700   50.5197 C.3     1  ZINC001513543414   -0.1500
      6 C6         -4.9469    0.1766   50.6431 C.3     1  ZINC001513543414   -0.1500
      7 C7         -4.0891    1.3738   50.1620 C.3     1  ZINC001513543414    0.0700
      8 H8         -4.0500    1.3976   49.0729 H       1  ZINC001513543414    0.0800
      9 C9         -2.6760    1.2815   50.7413 C.3     1  ZINC001513543414    0.1100
     10 N10        -1.9035    2.4578   50.3343 N.pl3   1  ZINC001513543414   -0.4600
     11 C11        -1.7720    3.6355   51.0165 C.2     1  ZINC001513543414    0.1900
     12 C12        -2.4004    3.9739   52.3438 C.3     1  ZINC001513543414    0.1800
     13 H13        -3.2128    3.2816   52.5644 H       1  ZINC001513543414    0.1000
     14 C14        -1.3362    3.9306   53.4692 C.3     1  ZINC001513543414   -0.1500
     15 C15        -1.9751    4.8839   54.5158 C.3     1  ZINC001513543414   -0.1500
     16 C16        -2.6821    5.9253   53.6218 C.3     1  ZINC001513543414    0.0500
     17 O17        -2.8857    5.3258   52.3354 O.3     1  ZINC001513543414   -0.3500
     18 N18        -1.0018    4.4106   50.3067 N.2     1  ZINC001513543414   -0.2600
     19 N19        -0.6407    3.8075   49.2308 N.2     1  ZINC001513543414   -0.3100
     20 C20        -1.1612    2.6033   49.1986 C.2     1  ZINC001513543414    0.3400
     21 N21        -0.9955    1.6607   48.1963 N.3     1  ZINC001513543414   -0.4500
     22 C22         0.3149    0.9865   48.3146 C.3     1  ZINC001513543414    0.0500
     23 C23         0.7424    0.6939   46.8548 C.3     1  ZINC001513543414   -0.1500
     24 C24         0.2275    1.9584   46.1181 C.3     1  ZINC001513543414    0.0700
     25 H25         0.9401    2.7776   46.2143 H       1  ZINC001513543414    0.0800
     26 O26        -0.0280    1.6723   44.7415 O.3     1  ZINC001513543414   -0.3800
     27 C27         1.1338    1.2919   44.0016 C.3     1  ZINC001513543414    0.0300
     28 C28        -1.0835    2.2854   46.8637 C.3     1  ZINC001513543414    0.0600
     29 O29        -4.7600    2.5412   50.6624 O.3     1  ZINC001513543414   -0.3600
     30 H30        -7.4291    5.2412   49.7285 H       1  ZINC001513543414    0.0500
     31 H31        -7.1222    4.7435   51.4097 H       1  ZINC001513543414    0.0500
     32 H32        -5.7689    4.8836   50.2619 H       1  ZINC001513543414    0.0600
     33 H33        -8.0540    2.8679   50.0822 H       1  ZINC001513543414    0.0700
     34 H34        -6.7008    3.0080   48.9344 H       1  ZINC001513543414    0.0600
     35 H35        -7.5586    2.2547   52.5026 H       1  ZINC001513543414    0.0700
     36 H36        -5.8864    1.8749   52.9796 H       1  ZINC001513543414    0.0600
     37 H37        -6.3408    3.5501   52.5854 H       1  ZINC001513543414    0.0700
     38 H38        -7.0545    0.3006   51.2329 H       1  ZINC001513543414    0.0900
     39 H39        -6.7523    0.6685   49.5014 H       1  ZINC001513543414    0.0800
     40 H40        -4.7166   -0.0814   51.6769 H       1  ZINC001513543414    0.0800
     41 H41        -4.8214   -0.6853   49.9878 H       1  ZINC001513543414    0.0900
     42 H42        -2.7312    1.2417   51.8292 H       1  ZINC001513543414    0.1000
     43 H43        -2.1889    0.3803   50.3690 H       1  ZINC001513543414    0.1100
     44 H44        -1.2289    2.9226   53.8699 H       1  ZINC001513543414    0.0900
     45 H45        -0.3786    4.3163   53.1195 H       1  ZINC001513543414    0.0900
     46 H46        -2.6963    4.3516   55.1360 H       1  ZINC001513543414    0.0800
     47 H47        -1.2080    5.3563   55.1294 H       1  ZINC001513543414    0.0900
     48 H48        -3.6433    6.1957   54.0586 H       1  ZINC001513543414    0.0700
     49 H49        -2.0568    6.8126   53.5227 H       1  ZINC001513543414    0.0700
     50 H50         1.0378    1.6441   48.7973 H       1  ZINC001513543414    0.0600
     51 H51         0.2139    0.0564   48.8741 H       1  ZINC001513543414    0.0900
     52 H52         1.8262    0.6097   46.7747 H       1  ZINC001513543414    0.0800
     53 H53         0.2536   -0.2041   46.4772 H       1  ZINC001513543414    0.0900
     54 H54         0.8561    1.0916   42.9667 H       1  ZINC001513543414    0.0900
     55 H55         1.8645    2.1000   44.0319 H       1  ZINC001513543414    0.0400
     56 H56         1.5669    0.3937   44.4419 H       1  ZINC001513543414    0.0400
     57 H57        -1.9330    1.8755   46.3173 H       1  ZINC001513543414    0.1000
     58 H58        -1.1921    3.3651   46.9667 H       1  ZINC001513543414    0.0900
@<TRIPOS>BOND
     1     1     2    1
     2     1    30    1
     3     1    31    1
     4     1    32    1
     5     2     3    1
     6     2    33    1
     7     2    34    1
     8     3    29    1
     9     3     4    1
    10     3     5    1
    11     4    35    1
    12     4    36    1
    13     4    37    1
    14     5     6    1
    15     5    38    1
    16     5    39    1
    17     6     7    1
    18     6    40    1
    19     6    41    1
    20     7     8    1
    21     7     9    1
    22     7    29    1
    23     9    10    1
    24     9    42    1
    25     9    43    1
    26    10    20    1
    27    10    11    1
    28    11    12    1
    29    11    18    2
    30    12    13    1
    31    12    17    1
    32    12    14    1
    33    14    15    1
    34    14    44    1
    35    14    45    1
    36    15    16    1
    37    15    46    1
    38    15    47    1
    39    16    17    1
    40    16    48    1
    41    16    49    1
    42    18    19    1
    43    19    20    2
    44    20    21    1
    45    21    28    1
    46    21    22    1
    47    22    23    1
    48    22    50    1
    49    22    51    1
    50    23    24    1
    51    23    52    1
    52    23    53    1
    53    24    25    1
    54    24    26    1
    55    24    28    1
    56    26    27    1
    57    27    54    1
    58    27    55    1
    59    27    56    1
    60    28    57    1
    61    28    58    1
@<TRIPOS>SUBSTRUCTURE
     1 ZINC001513543414        1 TEMP              0 ****  ****    0 ROOT


##########                                Name:    ZINC000013809319
##########                DOCK_Rotatable_Bonds:                  10
##########                         Heavy_Atoms:                  30
##########                    Molecular_Weight:             407.469
##########                DOCK_Rotatable_Bonds:                  10
##########                       Formal_Charge:         -0.00999978
##########                     HBond_Acceptors:                   7
##########                        HBond_Donors:                   1
##########                         Heavy_Atoms:                  30
##########                          Grid_Score:          -34.899681
##########                     Grid_vdw_energy:          -34.616123
##########                      Grid_es_energy:           -0.283557
##########           Internal_energy_repulsive:           12.622279

@<TRIPOS>MOLECULE
ZINC000013809319
 55 57 1 0 0
SMALL
USER_CHARGES


@<TRIPOS>ATOM
      1 C1          3.9654    0.1529   51.0714 C.3     1  ZINC000013809319   -0.1500
      2 C2          2.7822    0.9953   51.5528 C.3     1  ZINC000013809319    0.0500
      3 O3          2.0464    1.4718   50.4243 O.3     1  ZINC000013809319   -0.3100
      4 C4          0.7206    1.7024   50.6056 C.ar    1  ZINC000013809319    0.1500
      5 C5          0.2843    2.3895   51.7315 C.ar    1  ZINC000013809319   -0.2200
      6 C6         -1.0602    2.6257   51.9185 C.ar    1  ZINC000013809319   -0.0300
      7 C7         -1.9843    2.1739   50.9750 C.ar    1  ZINC000013809319   -0.1100
      8 C8         -3.4293    2.4261   51.1721 C.2     1  ZINC000013809319    0.2300
      9 C9         -4.3463    1.4016   51.0014 C.2     1  ZINC000013809319   -0.2900
     10 C10        -5.7089    1.6847   51.1991 C.2     1  ZINC000013809319    0.5300
     11 O11        -6.5518    0.8132   51.0603 O.2     1  ZINC000013809319   -0.5400
     12 N12        -6.0668    2.9388   51.5457 N.am    1  ZINC000013809319   -0.5100
     13 C13        -7.4800    3.2611   51.7583 C.3     1  ZINC000013809319    0.0700
     14 C14        -7.9159    2.7442   53.1051 C.2     1  ZINC000013809319    0.5000
     15 O15        -8.7568    1.8732   53.1772 O.2     1  ZINC000013809319   -0.5200
     16 N16        -7.3712    3.2497   54.2295 N.am    1  ZINC000013809319   -0.7200
     17 C17        -7.7937    2.7460   55.5387 C.3     1  ZINC000013809319    0.1300
     18 C18        -6.8259    3.2448   56.6136 C.3     1  ZINC000013809319   -0.0800
     19 C19        -7.5524    3.3610   57.9288 C.ar    1  ZINC000013809319   -0.1200
     20 C20        -7.9359    4.6017   58.3994 C.ar    1  ZINC000013809319   -0.0800
     21 C21        -8.6021    4.7089   59.6065 C.ar    1  ZINC000013809319   -0.1500
     22 C22        -8.8864    3.5753   60.3449 C.ar    1  ZINC000013809319   -0.0800
     23 C23        -8.5053    2.3319   59.8783 C.ar    1  ZINC000013809319   -0.2100
     24 C24        -7.8416    2.2211   58.6653 C.ar    1  ZINC000013809319    0.1300
     25 O25        -7.4657    0.9993   58.2042 O.3     1  ZINC000013809319   -0.3100
     26 C26        -7.7940   -0.1297   59.0164 C.3     1  ZINC000013809319    0.0300
     27 C27        -5.1301    3.8965   51.6977 C.2     1  ZINC000013809319    0.3900
     28 N28        -3.8614    3.6498   51.5234 N.2     1  ZINC000013809319   -0.5300
     29 C29        -1.5424    1.4839   49.8449 C.ar    1  ZINC000013809319   -0.0500
     30 C30        -0.1959    1.2559   49.6618 C.ar    1  ZINC000013809319   -0.1600
     31 H31         3.5967   -0.6948   50.4938 H       1  ZINC000013809319    0.0700
     32 H32         4.6155    0.7639   50.4454 H       1  ZINC000013809319    0.0700
     33 H33         4.5267   -0.2106   51.9322 H       1  ZINC000013809319    0.0800
     34 H34         2.1321    0.3842   52.1789 H       1  ZINC000013809319    0.0600
     35 H35         3.1509    1.8429   52.1305 H       1  ZINC000013809319    0.0600
     36 H36         0.9999    2.7386   52.4614 H       1  ZINC000013809319    0.1300
     37 H37        -1.3988    3.1596   52.7942 H       1  ZINC000013809319    0.1400
     38 H38        -4.0220    0.4097   50.7230 H       1  ZINC000013809319    0.1600
     39 H39        -7.6155    4.3420   51.7229 H       1  ZINC000013809319    0.1300
     40 H40        -8.0806    2.7937   50.9780 H       1  ZINC000013809319    0.1300
     41 H41        -6.6995    3.9472   54.1719 H       1  ZINC000013809319    0.4000
     42 H42        -8.7986    3.1059   55.7594 H       1  ZINC000013809319    0.0700
     43 H43        -7.7924    1.6561   55.5263 H       1  ZINC000013809319    0.0700
     44 H44        -6.0009    2.5398   56.7153 H       1  ZINC000013809319    0.0800
     45 H45        -6.4359    4.2214   56.3265 H       1  ZINC000013809319    0.0800
     46 H46        -7.7149    5.4887   57.8244 H       1  ZINC000013809319    0.1300
     47 H47        -8.9005    5.6801   59.9731 H       1  ZINC000013809319    0.1300
     48 H48        -9.4065    3.6617   61.2874 H       1  ZINC000013809319    0.1300
     49 H49        -8.7274    1.4466   60.4557 H       1  ZINC000013809319    0.1300
     50 H50        -8.8752   -0.1844   59.1427 H       1  ZINC000013809319    0.0600
     51 H51        -7.4381   -1.0400   58.5339 H       1  ZINC000013809319    0.1000
     52 H52        -7.3189   -0.0260   59.9918 H       1  ZINC000013809319    0.0600
     53 H53        -5.4383    4.8937   51.9753 H       1  ZINC000013809319    0.2000
     54 H54        -2.2547    1.1330   49.1129 H       1  ZINC000013809319    0.1400
     55 H55         0.1468    0.7224   48.7875 H       1  ZINC000013809319    0.1400
@<TRIPOS>BOND
     1     1     2    1
     2     1    31    1
     3     1    32    1
     4     1    33    1
     5     2     3    1
     6     2    34    1
     7     2    35    1
     8     3     4    1
     9     4    30   ar
    10     4     5   ar
    11     5     6   ar
    12     5    36    1
    13     6     7   ar
    14     6    37    1
    15     7     8    1
    16     7    29   ar
    17     8    28    1
    18     8     9    2
    19     9    10    1
    20     9    38    1
    21    10    11    2
    22    10    12   am
    23    12    13    1
    24    12    27    1
    25    13    14    1
    26    13    39    1
    27    13    40    1
    28    14    15    2
    29    14    16   am
    30    16    17    1
    31    16    41    1
    32    17    18    1
    33    17    42    1
    34    17    43    1
    35    18    19    1
    36    18    44    1
    37    18    45    1
    38    19    24   ar
    39    19    20   ar
    40    20    21   ar
    41    20    46    1
    42    21    22   ar
    43    21    47    1
    44    22    23   ar
    45    22    48    1
    46    23    24   ar
    47    23    49    1
    48    24    25    1
    49    25    26    1
    50    26    50    1
    51    26    51    1
    52    26    52    1
    53    27    28    2
    54    27    53    1
    55    29    30   ar
    56    29    54    1
    57    30    55    1
@<TRIPOS>SUBSTRUCTURE
     1 ZINC000013809319        1 TEMP              0 ****  ****    0 ROOT


##########                                Name:    ZINC000373715094
##########                DOCK_Rotatable_Bonds:                   6
##########                         Heavy_Atoms:                  27
##########                    Molecular_Weight:             362.431
##########                DOCK_Rotatable_Bonds:                   6
##########                       Formal_Charge:           0.0299999
##########                     HBond_Acceptors:                   6
##########                        HBond_Donors:                   2
##########                         Heavy_Atoms:                  27
##########                          Grid_Score:          -34.892807
##########                     Grid_vdw_energy:          -34.527943
##########                      Grid_es_energy:           -0.364863
##########           Internal_energy_repulsive:            9.273496

@<TRIPOS>MOLECULE
ZINC000373715094
 49 52 1 0 0
SMALL
USER_CHARGES


@<TRIPOS>ATOM
      1 C1          1.5265    0.6950   44.2042 C.3     1  ZINC000373715094    0.0900
      2 N2          0.4919    1.4360   44.9301 N.am    1  ZINC000373715094   -0.6100
      3 C3         -0.8049    1.0847   44.9713 C.2     1  ZINC000373715094    0.5200
      4 O4         -1.2814    0.1203   44.4112 O.2     1  ZINC000373715094   -0.5200
      5 C5         -1.5835    2.0672   45.8182 C.3     1  ZINC000373715094   -0.1600
      6 C6         -0.4970    2.8220   46.6187 C.3     1  ZINC000373715094   -0.1000
      7 H7         -0.7584    3.8737   46.7353 H       1  ZINC000373715094    0.1100
      8 C8         -0.2640    2.1644   47.9804 C.3     1  ZINC000373715094    0.1300
      9 N9         -1.3159    2.5820   48.9106 N.am    1  ZINC000373715094   -0.7300
     10 C10        -1.6407    1.7970   49.9570 C.2     1  ZINC000373715094    0.5200
     11 O11        -1.0612    0.7455   50.1291 O.2     1  ZINC000373715094   -0.5200
     12 C12        -2.7240    2.2257   50.9129 C.3     1  ZINC000373715094   -0.0600
     13 C13        -3.9043    1.2977   50.7833 C.2     1  ZINC000373715094    0.1200
     14 N14        -3.9133    0.1483   50.1709 N.2     1  ZINC000373715094   -0.2300
     15 N15        -5.1834   -0.4314   50.2556 N.pl3   1  ZINC000373715094   -0.5100
     16 C16        -6.0109    0.4037   50.9598 C.ar    1  ZINC000373715094    0.1300
     17 C17        -7.3484    0.3394   51.3418 C.ar    1  ZINC000373715094   -0.1400
     18 C18        -7.9001    1.3617   52.0610 C.ar    1  ZINC000373715094   -0.0700
     19 C19        -7.1428    2.4703   52.4182 C.ar    1  ZINC000373715094   -0.1600
     20 C20        -5.8294    2.5606   52.0577 C.ar    1  ZINC000373715094   -0.0400
     21 C21        -5.2396    1.5237   51.3269 C.ar    1  ZINC000373715094   -0.1600
     22 C22         0.7394    2.6538   45.7109 C.3     1  ZINC000373715094    0.1800
     23 H23         1.6393    2.5430   46.3160 H       1  ZINC000373715094    0.1000
     24 C24         0.8743    3.8382   44.7888 C.ar    1  ZINC000373715094   -0.1000
     25 C25         0.2302    3.8388   43.5658 C.ar    1  ZINC000373715094   -0.1000
     26 C26         0.3540    4.9252   42.7200 C.ar    1  ZINC000373715094   -0.1200
     27 C27         1.1216    6.0111   43.0975 C.ar    1  ZINC000373715094   -0.1100
     28 C28         1.7650    6.0108   44.3210 C.ar    1  ZINC000373715094   -0.1200
     29 C29         1.6378    4.9263   45.1685 C.ar    1  ZINC000373715094   -0.1100
     30 H30         1.9598   -0.0604   44.8596 H       1  ZINC000373715094    0.0600
     31 H31         1.0833    0.2103   43.3342 H       1  ZINC000373715094    0.0800
     32 H32         2.3059    1.3839   43.8785 H       1  ZINC000373715094    0.0700
     33 H33        -2.1406    2.7583   45.1857 H       1  ZINC000373715094    0.1100
     34 H34        -2.2568    1.5390   46.4932 H       1  ZINC000373715094    0.1100
     35 H35        -0.2869    1.0803   47.8690 H       1  ZINC000373715094    0.0700
     36 H36         0.7073    2.4693   48.3696 H       1  ZINC000373715094    0.0800
     37 H37        -1.7785    3.4235   48.7736 H       1  ZINC000373715094    0.4000
     38 H38        -2.3433    2.1891   51.9335 H       1  ZINC000373715094    0.1200
     39 H39        -3.0345    3.2436   50.6772 H       1  ZINC000373715094    0.1200
     40 H40        -5.4378   -1.2872   49.8763 H       1  ZINC000373715094    0.4400
     41 H41        -7.9484   -0.5165   51.0699 H       1  ZINC000373715094    0.1300
     42 H42        -8.9379    1.3075   52.3550 H       1  ZINC000373715094    0.1300
     43 H43        -7.5977    3.2683   52.9862 H       1  ZINC000373715094    0.1300
     44 H44        -5.2474    3.4257   52.3393 H       1  ZINC000373715094    0.1300
     45 H45        -0.3695    2.9905   43.2709 H       1  ZINC000373715094    0.1200
     46 H46        -0.1488    4.9254   41.7641 H       1  ZINC000373715094    0.1200
     47 H47         1.2189    6.8596   42.4364 H       1  ZINC000373715094    0.1200
     48 H48         2.3650    6.8590   44.6157 H       1  ZINC000373715094    0.1300
     49 H49         2.1405    4.9261   46.1244 H       1  ZINC000373715094    0.1300
@<TRIPOS>BOND
     1     1     2    1
     2     1    30    1
     3     1    31    1
     4     1    32    1
     5     2    22    1
     6     2     3   am
     7     3     4    2
     8     3     5    1
     9     5     6    1
    10     5    33    1
    11     5    34    1
    12     6     7    1
    13     6     8    1
    14     6    22    1
    15     8     9    1
    16     8    35    1
    17     8    36    1
    18     9    10   am
    19     9    37    1
    20    10    11    2
    21    10    12    1
    22    12    13    1
    23    12    38    1
    24    12    39    1
    25    13    21    1
    26    13    14    2
    27    14    15    1
    28    15    16    1
    29    15    40    1
    30    16    21   ar
    31    16    17   ar
    32    17    18   ar
    33    17    41    1
    34    18    19   ar
    35    18    42    1
    36    19    20   ar
    37    19    43    1
    38    20    21   ar
    39    20    44    1
    40    22    23    1
    41    22    24    1
    42    24    29   ar
    43    24    25   ar
    44    25    26   ar
    45    25    45    1
    46    26    27   ar
    47    26    46    1
    48    27    28   ar
    49    27    47    1
    50    28    29   ar
    51    28    48    1
    52    29    49    1
@<TRIPOS>SUBSTRUCTURE
     1 ZINC000373715094        1 TEMP              0 ****  ****    0 ROOT


##########                                Name:    ZINC000807524472
##########                DOCK_Rotatable_Bonds:                   9
##########                         Heavy_Atoms:                  28
##########                    Molecular_Weight:             410.534
##########                DOCK_Rotatable_Bonds:                   9
##########                       Formal_Charge:           0.0200006
##########                     HBond_Acceptors:                   8
##########                        HBond_Donors:                   0
##########                         Heavy_Atoms:                  28
##########                          Grid_Score:          -34.860531
##########                     Grid_vdw_energy:          -34.609673
##########                      Grid_es_energy:           -0.250860
##########           Internal_energy_repulsive:           13.998928

@<TRIPOS>MOLECULE
ZINC000807524472
 58 60 1 0 0
SMALL
USER_CHARGES


@<TRIPOS>ATOM
      1 C1          1.8124    0.8300   43.6042 C.3     1  ZINC000807524472   -0.1500
      2 C2          0.5947    0.7692   44.5286 C.3     1  ZINC000807524472    0.0600
      3 O3         -0.0308    2.0530   44.5774 O.3     1  ZINC000807524472   -0.3800
      4 C4         -1.1849    2.1057   45.4186 C.3     1  ZINC000807524472    0.0600
      5 C5         -0.7893    1.7416   46.8509 C.3     1  ZINC000807524472    0.0700
      6 O6         -1.9003    2.0161   47.7445 O.3     1  ZINC000807524472   -0.3500
      7 C7         -1.7524    1.6536   49.0341 C.2     1  ZINC000807524472    0.5000
      8 O8         -0.8433    0.9146   49.3569 O.2     1  ZINC000807524472   -0.4600
      9 C9         -2.6925    2.1529   50.0520 C.ar    1  ZINC000807524472   -0.1200
     10 C10        -4.0347    1.7647   50.0205 C.ar    1  ZINC000807524472    0.0400
     11 C11        -4.9087    2.2350   50.9760 C.ar    1  ZINC000807524472   -0.7000
     12 S12        -6.6001    1.7433   50.9341 S.o2    1  ZINC000807524472    2.6900
     13 O13        -6.7263    0.8315   49.8514 O.2     1  ZINC000807524472   -0.9500
     14 O14        -6.9564    1.4169   52.2704 O.2     1  ZINC000807524472   -0.9500
     15 N15        -7.4891    3.0795   50.5261 N.am    1  ZINC000807524472   -0.9900
     16 C16        -8.5177    3.6008   51.4366 C.3     1  ZINC000807524472    0.1200
     17 C17        -8.2461    5.0874   51.6881 C.3     1  ZINC000807524472   -0.1400
     18 C18        -8.1632    5.8207   50.3473 C.3     1  ZINC000807524472   -0.1200
     19 C19        -7.0066    5.2510   49.5230 C.3     1  ZINC000807524472   -0.1400
     20 C20        -7.2601    3.7699   49.2495 C.3     1  ZINC000807524472    0.1200
     21 C21        -4.4646    3.0924   51.9701 C.ar    1  ZINC000807524472    0.0200
     22 C22        -3.1427    3.4856   52.0150 C.ar    1  ZINC000807524472   -0.1800
     23 C23        -2.2446    3.0177   51.0641 C.ar    1  ZINC000807524472    0.2000
     24 N24        -0.9141    3.4115   51.1072 N.3     1  ZINC000807524472   -0.4800
     25 C25        -0.7946    4.8909   51.0499 C.3     1  ZINC000807524472    0.0400
     26 C26         0.6191    5.1552   51.6261 C.3     1  ZINC000807524472   -0.1200
     27 C27         0.7378    4.0988   52.7486 C.3     1  ZINC000807524472   -0.1300
     28 C28        -0.2821    3.0051   52.3812 C.3     1  ZINC000807524472    0.0400
     29 H29         2.5213    1.5653   43.9850 H       1  ZINC000807524472    0.0600
     30 H30         2.2895   -0.1492   43.5669 H       1  ZINC000807524472    0.0700
     31 H31         1.4939    1.1174   42.6022 H       1  ZINC000807524472    0.0700
     32 H32        -0.1142    0.0340   44.1478 H       1  ZINC000807524472    0.0500
     33 H33         0.9132    0.4818   45.5306 H       1  ZINC000807524472    0.0500
     34 H34        -1.6012    3.1130   45.4015 H       1  ZINC000807524472    0.0600
     35 H35        -1.9309    1.3981   45.0566 H       1  ZINC000807524472    0.0700
     36 H36        -0.5367    0.6825   46.9000 H       1  ZINC000807524472    0.0900
     37 H37         0.0740    2.3354   47.1515 H       1  ZINC000807524472    0.0800
     38 H38        -4.3864    1.0970   49.2479 H       1  ZINC000807524472    0.1600
     39 H39        -9.5017    3.4808   50.9832 H       1  ZINC000807524472    0.0800
     40 H40        -8.4794    3.0575   52.3807 H       1  ZINC000807524472    0.0900
     41 H41        -9.0552    5.5093   52.2842 H       1  ZINC000807524472    0.0800
     42 H42        -7.3028    5.1994   52.2229 H       1  ZINC000807524472    0.0700
     43 H43        -9.0978    5.6875   49.8023 H       1  ZINC000807524472    0.0700
     44 H44        -7.9945    6.8829   50.5243 H       1  ZINC000807524472    0.0700
     45 H45        -6.9335    5.7893   48.5780 H       1  ZINC000807524472    0.0800
     46 H46        -6.0751    5.3614   50.0781 H       1  ZINC000807524472    0.0700
     47 H47        -6.3938    3.3373   48.7489 H       1  ZINC000807524472    0.0900
     48 H48        -8.1418    3.6605   48.6184 H       1  ZINC000807524472    0.0800
     49 H49        -5.1579    3.4555   52.7144 H       1  ZINC000807524472    0.1500
     50 H50        -2.8050    4.1544   52.7929 H       1  ZINC000807524472    0.1400
     51 H51        -0.8624    5.2427   50.0204 H       1  ZINC000807524472    0.0900
     52 H52        -1.5571    5.3627   51.6697 H       1  ZINC000807524472    0.0500
     53 H53         1.3821    4.9958   50.8642 H       1  ZINC000807524472    0.0800
     54 H54         0.6864    6.1628   52.0361 H       1  ZINC000807524472    0.0800
     55 H55         1.7454    3.6837   52.7725 H       1  ZINC000807524472    0.0800
     56 H56         0.4872    4.5414   53.7126 H       1  ZINC000807524472    0.0700
     57 H57        -1.0385    2.9254   53.1621 H       1  ZINC000807524472    0.0500
     58 H58         0.2272    2.0497   52.2549 H       1  ZINC000807524472    0.0900
@<TRIPOS>BOND
     1     1     2    1
     2     1    29    1
     3     1    30    1
     4     1    31    1
     5     2     3    1
     6     2    32    1
     7     2    33    1
     8     3     4    1
     9     4     5    1
    10     4    34    1
    11     4    35    1
    12     5     6    1
    13     5    36    1
    14     5    37    1
    15     6     7    1
    16     7     8    2
    17     7     9    1
    18     9    23   ar
    19     9    10   ar
    20    10    11   ar
    21    10    38    1
    22    11    12    1
    23    11    21   ar
    24    12    13    2
    25    12    14    2
    26    12    15   am
    27    15    20    1
    28    15    16    1
    29    16    17    1
    30    16    39    1
    31    16    40    1
    32    17    18    1
    33    17    41    1
    34    17    42    1
    35    18    19    1
    36    18    43    1
    37    18    44    1
    38    19    20    1
    39    19    45    1
    40    19    46    1
    41    20    47    1
    42    20    48    1
    43    21    22   ar
    44    21    49    1
    45    22    23   ar
    46    22    50    1
    47    23    24    1
    48    24    28    1
    49    24    25    1
    50    25    26    1
    51    25    51    1
    52    25    52    1
    53    26    27    1
    54    26    53    1
    55    26    54    1
    56    27    28    1
    57    27    55    1
    58    27    56    1
    59    28    57    1
    60    28    58    1
@<TRIPOS>SUBSTRUCTURE
     1 ZINC000807524472        1 TEMP              0 ****  ****    0 ROOT


##########                                Name:    ZINC000474251633
##########                DOCK_Rotatable_Bonds:                   8
##########                         Heavy_Atoms:                  28
##########                    Molecular_Weight:             416.931
##########                DOCK_Rotatable_Bonds:                   8
##########                       Formal_Charge:          0.00999953
##########                     HBond_Acceptors:                   8
##########                        HBond_Donors:                   2
##########                         Heavy_Atoms:                  28
##########                          Grid_Score:          -34.855652
##########                     Grid_vdw_energy:          -33.614182
##########                      Grid_es_energy:           -1.241470
##########           Internal_energy_repulsive:            7.747200

@<TRIPOS>MOLECULE
ZINC000474251633
 49 52 1 0 0
SMALL
USER_CHARGES


@<TRIPOS>ATOM
      1 O1          1.3126    2.3799   51.4957 O.2     1  ZINC000474251633   -0.5300
      2 C2          0.1119    2.5219   51.5915 C.2     1  ZINC000474251633    0.5100
      3 C3         -0.7996    1.9690   50.5264 C.3     1  ZINC000474251633    0.1000
      4 N4         -2.1552    1.8344   51.0653 N.am    1  ZINC000474251633   -0.7100
      5 C5         -3.2037    1.7073   50.2281 C.2     1  ZINC000474251633    0.5900
      6 O6         -3.0243    1.7027   49.0247 O.2     1  ZINC000474251633   -0.5000
      7 C7         -4.5625    1.5742   50.7683 C.2     1  ZINC000474251633   -0.2300
      8 C8         -5.1816    2.5018   51.5080 C.2     1  ZINC000474251633    0.0400
      9 Cl9        -4.4280    4.0094   51.9238 Cl      1  ZINC000474251633   -0.0100
     10 C10        -6.4831    2.1739   51.9254 C.ar    1  ZINC000474251633   -0.0900
     11 C11        -7.3827    2.9361   52.7076 C.ar    1  ZINC000474251633   -0.0600
     12 C12        -8.6144    2.4486   53.0142 C.ar    1  ZINC000474251633   -0.1200
     13 C13        -9.0126    1.1954   52.5661 C.ar    1  ZINC000474251633   -0.0800
     14 C14        -8.1611    0.4312   51.8048 C.ar    1  ZINC000474251633   -0.0900
     15 C15        -6.8893    0.9111   51.4761 C.ar    1  ZINC000474251633   -0.1200
     16 S16        -5.6005    0.1801   50.5264 S.3     1  ZINC000474251633    0.1700
     17 N17        -0.4076    3.1693   52.6534 N.am    1  ZINC000474251633   -0.7200
     18 C18         0.4784    3.7068   53.6888 C.3     1  ZINC000474251633    0.2100
     19 C19        -0.2676    3.7883   54.9957 C.2     1  ZINC000474251633    0.0500
     20 N20         0.2613    3.6906   56.1883 N.2     1  ZINC000474251633   -0.2700
     21 N21        -0.7644    3.8193   57.1338 N.pl3   1  ZINC000474251633   -0.3600
     22 C22        -0.6060    3.7694   58.5894 C.3     1  ZINC000474251633    0.1500
     23 C23        -0.6604    2.3069   59.0771 C.3     1  ZINC000474251633   -0.1400
     24 C24         0.8261    1.8825   59.1721 C.3     1  ZINC000474251633   -0.1300
     25 C25         1.5141    3.1642   59.7041 C.3     1  ZINC000474251633   -0.1200
     26 C26         0.7767    4.3145   58.9881 C.3     1  ZINC000474251633   -0.1400
     27 C27        -1.9239    3.9973   56.4670 C.2     1  ZINC000474251633    0.0600
     28 C28        -1.6441    3.9877   55.1431 C.2     1  ZINC000474251633   -0.2600
     29 H29        -0.8137    2.6465   49.6726 H       1  ZINC000474251633    0.1100
     30 H30        -0.4363    0.9916   50.2087 H       1  ZINC000474251633    0.1100
     31 H31        -2.2981    1.8369   52.0247 H       1  ZINC000474251633    0.4100
     32 H32        -7.0887    3.9121   53.0642 H       1  ZINC000474251633    0.1300
     33 H33        -9.2901    3.0417   53.6125 H       1  ZINC000474251633    0.1400
     34 H34        -9.9939    0.8205   52.8171 H       1  ZINC000474251633    0.1400
     35 H35        -8.4750   -0.5428   51.4594 H       1  ZINC000474251633    0.1400
     36 H36        -1.3682    3.2794   52.7319 H       1  ZINC000474251633    0.4100
     37 H37         1.3421    3.0520   53.8037 H       1  ZINC000474251633    0.0900
     38 H38         0.8136    4.7028   53.3991 H       1  ZINC000474251633    0.0900
     39 H39        -1.3905    4.3537   59.0704 H       1  ZINC000474251633    0.1100
     40 H40        -1.1372    2.2486   60.0557 H       1  ZINC000474251633    0.0900
     41 H41        -1.1898    1.6839   58.3562 H       1  ZINC000474251633    0.0800
     42 H42         0.9484    1.0583   59.8748 H       1  ZINC000474251633    0.0800
     43 H43         1.2149    1.6148   58.1896 H       1  ZINC000474251633    0.0700
     44 H44         1.3887    3.2443   60.7839 H       1  ZINC000474251633    0.0700
     45 H45         2.5718    3.1667   59.4408 H       1  ZINC000474251633    0.0700
     46 H46         1.3298    4.6161   58.0986 H       1  ZINC000474251633    0.0700
     47 H47         0.6632    5.1627   59.6631 H       1  ZINC000474251633    0.0800
     48 H48        -2.8999    4.1283   56.9106 H       1  ZINC000474251633    0.1700
     49 H49        -2.3584    4.1068   54.3418 H       1  ZINC000474251633    0.1500
@<TRIPOS>BOND
     1     1     2    2
     2     2     3    1
     3     2    17   am
     4     3     4    1
     5     3    29    1
     6     3    30    1
     7     4     5   am
     8     4    31    1
     9     5     6    2
    10     5     7    1
    11     7    16    1
    12     7     8    2
    13     8     9    1
    14     8    10    1
    15    10    15   ar
    16    10    11   ar
    17    11    12   ar
    18    11    32    1
    19    12    13   ar
    20    12    33    1
    21    13    14   ar
    22    13    34    1
    23    14    15   ar
    24    14    35    1
    25    15    16    1
    26    17    18    1
    27    17    36    1
    28    18    19    1
    29    18    37    1
    30    18    38    1
    31    19    28    1
    32    19    20    2
    33    20    21    1
    34    21    22    1
    35    21    27    1
    36    22    26    1
    37    22    23    1
    38    22    39    1
    39    23    24    1
    40    23    40    1
    41    23    41    1
    42    24    25    1
    43    24    42    1
    44    24    43    1
    45    25    26    1
    46    25    44    1
    47    25    45    1
    48    26    46    1
    49    26    47    1
    50    27    28    2
    51    27    48    1
    52    28    49    1
@<TRIPOS>SUBSTRUCTURE
     1 ZINC000474251633        1 TEMP              0 ****  ****    0 ROOT


##########                                Name:    ZINC000033150761
##########                DOCK_Rotatable_Bonds:                   7
##########                         Heavy_Atoms:                  29
##########                    Molecular_Weight:             413.407
##########                DOCK_Rotatable_Bonds:                   7
##########                       Formal_Charge:          0.00999993
##########                     HBond_Acceptors:                  10
##########                        HBond_Donors:                   1
##########                         Heavy_Atoms:                  29
##########                          Grid_Score:          -34.801247
##########                     Grid_vdw_energy:          -32.817905
##########                      Grid_es_energy:           -1.983340
##########           Internal_energy_repulsive:            4.991642

@<TRIPOS>MOLECULE
ZINC000033150761
 42 45 1 0 0
SMALL
USER_CHARGES


@<TRIPOS>ATOM
      1 O1         -4.2607    0.0574   50.0343 O.2     1  ZINC000033150761   -0.5000
      2 C2         -4.7685    1.0279   50.5550 C.2     1  ZINC000033150761    0.5200
      3 C3         -6.2004    0.9699   51.0213 C.3     1  ZINC000033150761   -0.1300
      4 C4         -6.3980    1.9449   52.1839 C.3     1  ZINC000033150761   -0.0100
      5 C5         -7.7422    1.7019   52.8203 C.2     1  ZINC000033150761    0.1800
      6 N6         -8.8148    1.2459   52.2230 N.2     1  ZINC000033150761   -0.4400
      7 C7         -9.7687    1.1932   53.1798 C.2     1  ZINC000033150761    0.2200
      8 C8        -11.1713    0.7396   53.0020 C.ar    1  ZINC000033150761    0.1900
      9 C9        -12.0248    0.6890   54.1006 C.ar    1  ZINC000033150761   -0.1300
     10 C10       -13.3305    0.2638   53.9194 C.ar    1  ZINC000033150761   -0.0700
     11 C11       -13.7381   -0.0967   52.6438 C.ar    1  ZINC000033150761   -0.1500
     12 C12       -12.8362   -0.0219   51.5971 C.ar    1  ZINC000033150761    0.1100
     13 N13       -11.6018    0.3912   51.7967 N.ar    1  ZINC000033150761   -0.4500
     14 N14        -9.2249    1.6159   54.2908 N.2     1  ZINC000033150761   -0.3600
     15 O15        -8.0623    1.9056   54.1021 O.3     1  ZINC000033150761    0.0900
     16 N16        -4.0507    2.1563   50.7217 N.am    1  ZINC000033150761   -0.6200
     17 C17        -2.7304    2.2097   50.2917 C.2     1  ZINC000033150761    0.2700
     18 N18        -2.3318    2.0270   49.0715 N.2     1  ZINC000033150761   -0.5000
     19 C19        -1.0288    2.1157   48.8443 C.2     1  ZINC000033150761    0.1200
     20 C20        -0.4450    1.9283   47.4936 C.ar    1  ZINC000033150761    0.0000
     21 C21         0.3941    0.8451   47.2393 C.ar    1  ZINC000033150761   -0.0800
     22 C22         0.9353    0.6734   45.9812 C.ar    1  ZINC000033150761   -0.1200
     23 C23         0.6462    1.5752   44.9712 C.ar    1  ZINC000033150761    0.0700
     24 F24         1.1783    1.4029   43.7415 F       1  ZINC000033150761   -0.1300
     25 C25        -0.1891    2.6555   45.2186 C.ar    1  ZINC000033150761    0.0700
     26 F26        -0.4688    3.5327   44.2299 F       1  ZINC000033150761   -0.1300
     27 C27        -0.7388    2.8319   46.4737 C.ar    1  ZINC000033150761   -0.1000
     28 C28        -0.2727    2.3877   49.9229 C.2     1  ZINC000033150761   -0.2800
     29 S29        -1.3385    2.5434   51.3176 S.3     1  ZINC000033150761    0.2200
     30 H30        -6.8616    1.2455   50.1997 H       1  ZINC000033150761    0.1200
     31 H31        -6.4342   -0.0420   51.3521 H       1  ZINC000033150761    0.1200
     32 H32        -5.6125    1.7918   52.9239 H       1  ZINC000033150761    0.1300
     33 H33        -6.3519    2.9683   51.8115 H       1  ZINC000033150761    0.1200
     34 H34       -11.6736    0.9770   55.0804 H       1  ZINC000033150761    0.1400
     35 H35       -14.0156    0.2138   54.7528 H       1  ZINC000033150761    0.1500
     36 H36       -14.7495   -0.4328   52.4691 H       1  ZINC000033150761    0.1400
     37 H37       -13.1500   -0.3018   50.6024 H       1  ZINC000033150761    0.1700
     38 H38        -4.4558    2.9312   51.1418 H       1  ZINC000033150761    0.4300
     39 H39         0.6210    0.1410   48.0260 H       1  ZINC000033150761    0.1400
     40 H40         1.5859   -0.1659   45.7843 H       1  ZINC000033150761    0.1500
     41 H41        -1.3890    3.6726   46.6664 H       1  ZINC000033150761    0.1600
     42 H42         0.8017    2.4965   49.9317 H       1  ZINC000033150761    0.1800
@<TRIPOS>BOND
     1     1     2    2
     2     2     3    1
     3     2    16   am
     4     3     4    1
     5     3    30    1
     6     3    31    1
     7     4     5    1
     8     4    32    1
     9     4    33    1
    10     5    15    1
    11     5     6    2
    12     6     7    1
    13     7     8    1
    14     7    14    2
    15     8    13   ar
    16     8     9   ar
    17     9    10   ar
    18     9    34    1
    19    10    11   ar
    20    10    35    1
    21    11    12   ar
    22    11    36    1
    23    12    13   ar
    24    12    37    1
    25    14    15    1
    26    16    17    1
    27    16    38    1
    28    17    29    1
    29    17    18    2
    30    18    19    1
    31    19    20    1
    32    19    28    2
    33    20    27   ar
    34    20    21   ar
    35    21    22   ar
    36    21    39    1
    37    22    23   ar
    38    22    40    1
    39    23    24    1
    40    23    25   ar
    41    25    26    1
    42    25    27   ar
    43    27    41    1
    44    28    29    1
    45    28    42    1
@<TRIPOS>SUBSTRUCTURE
     1 ZINC000033150761        1 TEMP              0 ****  ****    0 ROOT


##########                                Name:    ZINC000533037883
##########                DOCK_Rotatable_Bonds:                   7
##########                         Heavy_Atoms:                  27
##########                    Molecular_Weight:             368.479
##########                DOCK_Rotatable_Bonds:                   7
##########                       Formal_Charge:          0.00999947
##########                     HBond_Acceptors:                   6
##########                        HBond_Donors:                   1
##########                         Heavy_Atoms:                  27
##########                          Grid_Score:          -34.763412
##########                     Grid_vdw_energy:          -32.324062
##########                      Grid_es_energy:           -2.439350
##########           Internal_energy_repulsive:           15.632134

@<TRIPOS>MOLECULE
ZINC000533037883
 55 58 1 0 0
SMALL
USER_CHARGES


@<TRIPOS>ATOM
      1 O1         -2.4230    0.4533   49.8448 O.2     1  ZINC000533037883   -0.5900
      2 C2         -2.6836    1.3313   50.6445 C.2     1  ZINC000533037883    0.7100
      3 N3         -3.9039    1.3834   51.2144 N.am    1  ZINC000533037883   -0.7500
      4 C4         -4.9183    0.3855   50.8657 C.3     1  ZINC000533037883    0.1400
      5 C5         -6.2193    1.0935   50.4822 C.3     1  ZINC000533037883   -0.0500
      6 C6         -6.9975    1.4245   51.7296 C.2     1  ZINC000533037883   -0.2300
      7 C7         -6.5489    2.1531   52.7779 C.2     1  ZINC000533037883    0.0600
      8 N8         -7.5460    2.2206   53.6888 N.pl3   1  ZINC000533037883   -0.3200
      9 C9         -7.4933    2.8850   54.9221 C.ar    1  ZINC000533037883    0.1600
     10 C10        -8.6063    2.9003   55.7521 C.ar    1  ZINC000533037883   -0.1400
     11 C11        -8.5512    3.5557   56.9666 C.ar    1  ZINC000533037883   -0.0900
     12 C12        -7.3895    4.1966   57.3560 C.ar    1  ZINC000533037883   -0.1300
     13 C13        -6.2795    4.1830   56.5316 C.ar    1  ZINC000533037883   -0.0900
     14 C14        -6.3263    3.5240   55.3187 C.ar    1  ZINC000533037883   -0.1200
     15 N15        -8.6412    1.5096   53.1815 N.2     1  ZINC000533037883   -0.2900
     16 C16        -8.3135    1.0375   52.0057 C.2     1  ZINC000533037883    0.0700
     17 N17        -1.7504    2.2493   50.9653 N.am    1  ZINC000533037883   -0.6300
     18 C18        -2.0483    3.3126   51.9345 C.3     1  ZINC000533037883    0.1100
     19 C19        -0.9765    3.2965   53.0290 C.3     1  ZINC000533037883   -0.1400
     20 C20         0.4072    3.4037   52.3839 C.3     1  ZINC000533037883   -0.1100
     21 C21         0.6377    2.2022   51.4646 C.3     1  ZINC000533037883   -0.0900
     22 H22         0.5543    1.2812   52.0416 H       1  ZINC000533037883    0.0800
     23 C23         2.0343    2.2928   50.8463 C.3     1  ZINC000533037883   -0.1200
     24 H24         2.1683    3.2448   50.3328 H       1  ZINC000533037883    0.0900
     25 C25         3.1312    2.0881   51.9265 C.3     1  ZINC000533037883   -0.1500
     26 C26         4.2834    1.5065   51.0691 C.3     1  ZINC000533037883    0.0500
     27 O27         3.6400    0.6727   50.0923 O.3     1  ZINC000533037883   -0.3900
     28 C28         2.2880    1.1105   49.8865 C.3     1  ZINC000533037883    0.0500
     29 C29        -0.4138    2.2022   50.3570 C.3     1  ZINC000533037883    0.1300
     30 H30        -4.1105    2.0815   51.8553 H       1  ZINC000533037883    0.4000
     31 H31        -4.5671   -0.2106   50.0235 H       1  ZINC000533037883    0.0700
     32 H32        -5.0973   -0.2650   51.7218 H       1  ZINC000533037883    0.0700
     33 H33        -5.9878    2.0126   49.9439 H       1  ZINC000533037883    0.0800
     34 H34        -6.8147    0.4395   49.8453 H       1  ZINC000533037883    0.0800
     35 H35        -5.5701    2.6001   52.8705 H       1  ZINC000533037883    0.1800
     36 H36        -9.5141    2.4005   55.4481 H       1  ZINC000533037883    0.1300
     37 H37        -9.4168    3.5679   57.6126 H       1  ZINC000533037883    0.1300
     38 H38        -7.3492    4.7090   58.3059 H       1  ZINC000533037883    0.1300
     39 H39        -5.3735    4.6844   56.8385 H       1  ZINC000533037883    0.1300
     40 H40        -5.4589    3.5136   54.6754 H       1  ZINC000533037883    0.1400
     41 H41        -8.9476    0.4460   51.3620 H       1  ZINC000533037883    0.1900
     42 H42        -2.0414    4.2790   51.4304 H       1  ZINC000533037883    0.0700
     43 H43        -3.0278    3.1373   52.3796 H       1  ZINC000533037883    0.0800
     44 H44        -1.1307    4.1404   53.7015 H       1  ZINC000533037883    0.0800
     45 H45        -1.0447    2.3653   53.5913 H       1  ZINC000533037883    0.0700
     46 H46         0.4661    4.3232   51.8015 H       1  ZINC000533037883    0.0700
     47 H47         1.1704    3.4173   53.1620 H       1  ZINC000533037883    0.0700
     48 H48         3.4188    3.0370   52.3790 H       1  ZINC000533037883    0.0800
     49 H49         2.8075    1.3754   52.6850 H       1  ZINC000533037883    0.0800
     50 H50         4.8323    2.3100   50.5780 H       1  ZINC000533037883    0.0600
     51 H51         4.9546    0.9130   51.6899 H       1  ZINC000533037883    0.0900
     52 H52         1.5977    0.2982   50.1141 H       1  ZINC000533037883    0.0700
     53 H53         2.1563    1.4307   48.8531 H       1  ZINC000533037883    0.0700
     54 H54        -0.3148    1.2961   49.7591 H       1  ZINC000533037883    0.1000
     55 H55        -0.2764    3.0778   49.7226 H       1  ZINC000533037883    0.0700
@<TRIPOS>BOND
     1     1     2    2
     2     2     3   am
     3     2    17   am
     4     3     4    1
     5     3    30    1
     6     4     5    1
     7     4    31    1
     8     4    32    1
     9     5     6    1
    10     5    33    1
    11     5    34    1
    12     6    16    1
    13     6     7    2
    14     7     8    1
    15     7    35    1
    16     8     9    1
    17     8    15    1
    18     9    14   ar
    19     9    10   ar
    20    10    11   ar
    21    10    36    1
    22    11    12   ar
    23    11    37    1
    24    12    13   ar
    25    12    38    1
    26    13    14   ar
    27    13    39    1
    28    14    40    1
    29    15    16    2
    30    16    41    1
    31    17    29    1
    32    17    18    1
    33    18    19    1
    34    18    42    1
    35    18    43    1
    36    19    20    1
    37    19    44    1
    38    19    45    1
    39    20    21    1
    40    20    46    1
    41    20    47    1
    42    21    22    1
    43    21    23    1
    44    21    29    1
    45    23    24    1
    46    23    28    1
    47    23    25    1
    48    25    26    1
    49    25    48    1
    50    25    49    1
    51    26    27    1
    52    26    50    1
    53    26    51    1
    54    27    28    1
    55    28    52    1
    56    28    53    1
    57    29    54    1
    58    29    55    1
@<TRIPOS>SUBSTRUCTURE
     1 ZINC000533037883        1 TEMP              0 ****  ****    0 ROOT


##########                                Name:    ZINC001342153661
##########                DOCK_Rotatable_Bonds:                   8
##########                         Heavy_Atoms:                  29
##########                    Molecular_Weight:             395.548
##########                DOCK_Rotatable_Bonds:                   8
##########                       Formal_Charge:          -0.0400005
##########                     HBond_Acceptors:                   6
##########                        HBond_Donors:                   1
##########                         Heavy_Atoms:                  29
##########                          Grid_Score:          -34.686432
##########                     Grid_vdw_energy:          -33.594284
##########                      Grid_es_energy:           -1.092149
##########           Internal_energy_repulsive:           13.135452

@<TRIPOS>MOLECULE
ZINC001342153661
 62 65 1 0 0
SMALL
USER_CHARGES


@<TRIPOS>ATOM
      1 C1         -3.3345    4.3000   53.5946 C.2     1  ZINC001342153661   -0.1400
      2 C2         -2.5167    3.9610   52.6289 C.2     1  ZINC001342153661   -0.1600
      3 C3         -1.0898    3.5929   52.9443 C.3     1  ZINC001342153661   -0.1200
      4 C4         -3.0029    3.9393   51.2027 C.3     1  ZINC001342153661    0.1500
      5 N5         -3.1811    2.5516   50.7685 N.pl3   1  ZINC001342153661   -0.4700
      6 C6         -4.2551    1.7413   51.0133 C.2     1  ZINC001342153661    0.1800
      7 C7         -5.4933    2.1098   51.7891 C.3     1  ZINC001342153661   -0.0600
      8 C8         -6.7228    1.9533   50.8920 C.3     1  ZINC001342153661    0.1600
      9 H9         -6.4508    1.3929   49.9975 H       1  ZINC001342153661    0.1000
     10 O10        -7.7442    1.2502   51.6022 O.3     1  ZINC001342153661   -0.5400
     11 C11        -7.2325    3.3151   50.4962 C.ar    1  ZINC001342153661   -0.1700
     12 C12        -7.0164    3.8005   49.2158 C.ar    1  ZINC001342153661   -0.0600
     13 C13        -7.5040    5.0587   48.8960 C.ar    1  ZINC001342153661   -0.1700
     14 C14        -8.1841    5.7817   49.8574 C.ar    1  ZINC001342153661    0.1000
     15 N15        -8.3712    5.2879   51.0659 N.ar    1  ZINC001342153661   -0.4800
     16 C16        -7.9264    4.0935   51.4034 C.ar    1  ZINC001342153661    0.1100
     17 N17        -4.0096    0.5920   50.4508 N.2     1  ZINC001342153661   -0.2700
     18 N18        -2.8626    0.6206   49.8717 N.2     1  ZINC001342153661   -0.3200
     19 C19        -2.3123    1.8012   50.0308 C.2     1  ZINC001342153661    0.3600
     20 N20        -1.0782    2.2067   49.5481 N.3     1  ZINC001342153661   -0.4500
     21 C21        -1.0561    2.1901   48.0798 C.3     1  ZINC001342153661    0.0500
     22 C22         0.2655    2.7794   47.5816 C.3     1  ZINC001342153661   -0.1200
     23 C23         1.4288    1.9534   48.1376 C.3     1  ZINC001342153661   -0.1200
     24 C24         1.3546    1.9468   49.6670 C.3     1  ZINC001342153661   -0.0800
     25 H25         1.4620    2.9650   50.0410 H       1  ZINC001342153661    0.0800
     26 C26         2.4793    1.0750   50.2291 C.3     1  ZINC001342153661   -0.0800
     27 C27         3.8444    1.5014   49.6345 C.3     1  ZINC001342153661   -0.1200
     28 C28         4.8525    0.9972   50.6969 C.3     1  ZINC001342153661   -0.1300
     29 C29         4.1463    1.2599   52.0432 C.3     1  ZINC001342153661   -0.1300
     30 C30         2.6374    1.3094   51.7456 C.3     1  ZINC001342153661   -0.1200
     31 C31         0.0015    1.3817   50.1048 C.3     1  ZINC001342153661    0.0800
     32 H32        -2.9861    4.3156   54.6168 H       1  ZINC001342153661    0.1000
     33 H33        -4.3559    4.5681   53.3681 H       1  ZINC001342153661    0.1100
     34 H34        -1.0375    2.5376   53.2120 H       1  ZINC001342153661    0.0700
     35 H35        -0.4653    3.7774   52.0703 H       1  ZINC001342153661    0.0600
     36 H36        -0.7345    4.1974   53.7788 H       1  ZINC001342153661    0.0700
     37 H37        -3.9548    4.4661   51.1353 H       1  ZINC001342153661    0.1000
     38 H38        -2.2703    4.4294   50.5616 H       1  ZINC001342153661    0.1000
     39 H39        -5.5889    1.4534   52.6542 H       1  ZINC001342153661    0.1100
     40 H40        -5.4176    3.1441   52.1246 H       1  ZINC001342153661    0.1000
     41 H41        -7.9754    1.6465   52.4534 H       1  ZINC001342153661    0.3800
     42 H42        -6.4808    3.2129   48.4848 H       1  ZINC001342153661    0.1300
     43 H43        -7.3536    5.4685   47.9081 H       1  ZINC001342153661    0.1400
     44 H44        -8.5666    6.7624   49.6162 H       1  ZINC001342153661    0.1600
     45 H45        -8.0988    3.7226   52.4031 H       1  ZINC001342153661    0.1500
     46 H46        -1.1518    1.1633   47.7267 H       1  ZINC001342153661    0.0500
     47 H47        -1.8859    2.7845   47.6974 H       1  ZINC001342153661    0.0700
     48 H48         0.2881    2.7525   46.4921 H       1  ZINC001342153661    0.0800
     49 H49         0.3557    3.8107   47.9228 H       1  ZINC001342153661    0.0700
     50 H50         1.3606    0.9313   47.7652 H       1  ZINC001342153661    0.0600
     51 H51         2.3735    2.3954   47.8206 H       1  ZINC001342153661    0.0700
     52 H52         2.2836    0.0225   50.0241 H       1  ZINC001342153661    0.0800
     53 H53         4.0175    1.0130   48.6755 H       1  ZINC001342153661    0.0700
     54 H54         3.9001    2.5852   49.5330 H       1  ZINC001342153661    0.0700
     55 H55         5.0424   -0.0683   50.5673 H       1  ZINC001342153661    0.0600
     56 H56         5.7831    1.5614   50.6379 H       1  ZINC001342153661    0.0600
     57 H57         4.3628    0.4521   52.7422 H       1  ZINC001342153661    0.0600
     58 H58         4.4765    2.2121   52.4583 H       1  ZINC001342153661    0.0600
     59 H59         2.2353    2.2856   52.0165 H       1  ZINC001342153661    0.0600
     60 H60         2.1216    0.5256   52.3004 H       1  ZINC001342153661    0.0600
     61 H61        -0.0602    1.3889   51.1930 H       1  ZINC001342153661    0.0900
     62 H62        -0.0993    0.3587   49.7422 H       1  ZINC001342153661    0.0500
@<TRIPOS>BOND
     1     1     2    2
     2     1    32    1
     3     1    33    1
     4     2     3    1
     5     2     4    1
     6     3    34    1
     7     3    35    1
     8     3    36    1
     9     4     5    1
    10     4    37    1
    11     4    38    1
    12     5    19    1
    13     5     6    1
    14     6     7    1
    15     6    17    2
    16     7     8    1
    17     7    39    1
    18     7    40    1
    19     8     9    1
    20     8    10    1
    21     8    11    1
    22    10    41    1
    23    11    16   ar
    24    11    12   ar
    25    12    13   ar
    26    12    42    1
    27    13    14   ar
    28    13    43    1
    29    14    15   ar
    30    14    44    1
    31    15    16   ar
    32    16    45    1
    33    17    18    1
    34    18    19    2
    35    19    20    1
    36    20    31    1
    37    20    21    1
    38    21    22    1
    39    21    46    1
    40    21    47    1
    41    22    23    1
    42    22    48    1
    43    22    49    1
    44    23    24    1
    45    23    50    1
    46    23    51    1
    47    24    25    1
    48    24    26    1
    49    24    31    1
    50    26    30    1
    51    26    27    1
    52    26    52    1
    53    27    28    1
    54    27    53    1
    55    27    54    1
    56    28    29    1
    57    28    55    1
    58    28    56    1
    59    29    30    1
    60    29    57    1
    61    29    58    1
    62    30    59    1
    63    30    60    1
    64    31    61    1
    65    31    62    1
@<TRIPOS>SUBSTRUCTURE
     1 ZINC001342153661        1 TEMP              0 ****  ****    0 ROOT


##########                                Name:    ZINC000642096826
##########                DOCK_Rotatable_Bonds:                  12
##########                         Heavy_Atoms:                  25
##########                    Molecular_Weight:             345.485
##########                DOCK_Rotatable_Bonds:                  12
##########                       Formal_Charge:          0.00999919
##########                     HBond_Acceptors:                   5
##########                        HBond_Donors:                   1
##########                         Heavy_Atoms:                  25
##########                          Grid_Score:          -34.684052
##########                     Grid_vdw_energy:          -32.663349
##########                      Grid_es_energy:           -2.020703
##########           Internal_energy_repulsive:           19.592852

@<TRIPOS>MOLECULE
ZINC000642096826
 56 57 1 0 0
SMALL
USER_CHARGES


@<TRIPOS>ATOM
      1 C1         -8.3385    2.6968   59.6399 C.3     1  ZINC000642096826   -0.1500
      2 C2         -8.2702    1.3851   58.8553 C.3     1  ZINC000642096826   -0.1400
      3 C3         -9.6768    0.7992   58.7178 C.3     1  ZINC000642096826    0.1200
      4 N4         -9.6106   -0.4597   57.9715 N.am    1  ZINC000642096826   -0.6200
      5 C5         -9.5192   -1.7332   58.6900 C.3     1  ZINC000642096826    0.1100
      6 C6        -10.9122   -2.3558   58.8037 C.3     1  ZINC000642096826   -0.1400
      7 C7        -11.8443   -1.3895   59.5373 C.3     1  ZINC000642096826   -0.1500
      8 C8         -9.6339   -0.4464   56.6240 C.2     1  ZINC000642096826    0.5200
      9 O9         -9.5807   -1.4887   56.0063 O.2     1  ZINC000642096826   -0.5200
     10 C10        -9.7262    0.8637   55.8848 C.3     1  ZINC000642096826    0.0400
     11 N11        -9.9431    0.6050   54.4552 N.3     1  ZINC000642096826   -0.5200
     12 C12       -11.3225    0.1670   54.2029 C.3     1  ZINC000642096826    0.0100
     13 C13        -9.6108    1.7878   53.6499 C.3     1  ZINC000642096826    0.0900
     14 C14        -8.3204    1.5453   52.9101 C.ar    1  ZINC000642096826   -0.0500
     15 C15        -8.2836    0.6336   51.8701 C.ar    1  ZINC000642096826   -0.1000
     16 C16        -7.1055    0.4066   51.1891 C.ar    1  ZINC000642096826   -0.0600
     17 C17        -5.9491    1.0995   51.5512 C.ar    1  ZINC000642096826   -0.1400
     18 C18        -4.6832    0.8617   50.8255 C.2     1  ZINC000642096826    0.5600
     19 O19        -4.6562    0.0887   49.8878 O.2     1  ZINC000642096826   -0.5300
     20 N20        -3.5592    1.5019   51.2036 N.am    1  ZINC000642096826   -0.7000
     21 C21        -2.3043    1.2649   50.4856 C.3     1  ZINC000642096826    0.0800
     22 C22        -1.6514    2.4612   49.7903 C.3     1  ZINC000642096826   -0.1900
     23 C23        -1.0311    1.8850   51.0647 C.3     1  ZINC000642096826   -0.1900
     24 C24        -5.9933    2.0182   52.6010 C.ar    1  ZINC000642096826   -0.0900
     25 C25        -7.1791    2.2396   53.2703 C.ar    1  ZINC000642096826   -0.1200
     26 H26        -8.9765    3.4042   59.1102 H       1  ZINC000642096826    0.0600
     27 H27        -8.7512    2.5065   60.6306 H       1  ZINC000642096826    0.0600
     28 H28        -7.3364    3.1143   59.7379 H       1  ZINC000642096826    0.0600
     29 H29        -7.8574    1.5755   57.8645 H       1  ZINC000642096826    0.0600
     30 H30        -7.6320    0.6777   59.3849 H       1  ZINC000642096826    0.0600
     31 H31       -10.0912    0.6129   59.7086 H       1  ZINC000642096826    0.0800
     32 H32       -10.3137    1.5047   58.1843 H       1  ZINC000642096826    0.0800
     33 H33        -8.8616   -2.4111   58.1457 H       1  ZINC000642096826    0.0800
     34 H34        -9.1163   -1.5594   59.6878 H       1  ZINC000642096826    0.0800
     35 H35       -11.3048   -2.5523   57.8061 H       1  ZINC000642096826    0.0700
     36 H36       -10.8479   -3.2911   59.3596 H       1  ZINC000642096826    0.0700
     37 H37       -12.8367   -1.8330   59.6183 H       1  ZINC000642096826    0.0600
     38 H38       -11.4516   -1.1929   60.5350 H       1  ZINC000642096826    0.0600
     39 H39       -11.9086   -0.4542   58.9813 H       1  ZINC000642096826    0.0600
     40 H40       -10.5592    1.4455   56.2793 H       1  ZINC000642096826    0.0600
     41 H41        -8.7989    1.4212   56.0166 H       1  ZINC000642096826    0.1000
     42 H42       -12.0153    0.9436   54.5266 H       1  ZINC000642096826    0.0200
     43 H43       -11.4558   -0.0177   53.1370 H       1  ZINC000642096826    0.0700
     44 H44       -11.5196   -0.7503   54.7578 H       1  ZINC000642096826    0.0900
     45 H45       -10.4105    1.9759   52.9335 H       1  ZINC000642096826    0.0500
     46 H46        -9.4978    2.6525   54.3038 H       1  ZINC000642096826    0.0900
     47 H47        -9.1790    0.0981   51.5909 H       1  ZINC000642096826    0.1300
     48 H48        -7.0778   -0.3059   50.3779 H       1  ZINC000642096826    0.1400
     49 H49        -3.5810    2.1196   51.9512 H       1  ZINC000642096826    0.4000
     50 H50        -2.2155    0.2917   50.0029 H       1  ZINC000642096826    0.1400
     51 H51        -1.1331    2.2753   48.8497 H       1  ZINC000642096826    0.1000
     52 H52        -2.1555    3.4246   49.8670 H       1  ZINC000642096826    0.1000
     53 H53        -1.1271    2.4694   51.9798 H       1  ZINC000642096826    0.1000
     54 H54        -0.1046    1.3200   50.9625 H       1  ZINC000642096826    0.1100
     55 H55        -5.1020    2.5573   52.8862 H       1  ZINC000642096826    0.1200
     56 H56        -7.2147    2.9505   54.0826 H       1  ZINC000642096826    0.1300
@<TRIPOS>BOND
     1     1     2    1
     2     1    26    1
     3     1    27    1
     4     1    28    1
     5     2     3    1
     6     2    29    1
     7     2    30    1
     8     3     4    1
     9     3    31    1
    10     3    32    1
    11     4     5    1
    12     4     8   am
    13     5     6    1
    14     5    33    1
    15     5    34    1
    16     6     7    1
    17     6    35    1
    18     6    36    1
    19     7    37    1
    20     7    38    1
    21     7    39    1
    22     8     9    2
    23     8    10    1
    24    10    11    1
    25    10    40    1
    26    10    41    1
    27    11    12    1
    28    11    13    1
    29    12    42    1
    30    12    43    1
    31    12    44    1
    32    13    14    1
    33    13    45    1
    34    13    46    1
    35    14    25   ar
    36    14    15   ar
    37    15    16   ar
    38    15    47    1
    39    16    17   ar
    40    16    48    1
    41    17    18    1
    42    17    24   ar
    43    18    19    2
    44    18    20   am
    45    20    21    1
    46    20    49    1
    47    21    23    1
    48    21    22    1
    49    21    50    1
    50    22    23    1
    51    22    51    1
    52    22    52    1
    53    23    53    1
    54    23    54    1
    55    24    25   ar
    56    24    55    1
    57    25    56    1
@<TRIPOS>SUBSTRUCTURE
     1 ZINC000642096826        1 TEMP              0 ****  ****    0 ROOT


##########                                Name:    ZINC000740843182
##########                DOCK_Rotatable_Bonds:                  10
##########                         Heavy_Atoms:                  24
##########                    Molecular_Weight:              419.34
##########                DOCK_Rotatable_Bonds:                  10
##########                       Formal_Charge:          0.00999957
##########                     HBond_Acceptors:                   7
##########                        HBond_Donors:                   3
##########                         Heavy_Atoms:                  24
##########                          Grid_Score:          -34.678947
##########                     Grid_vdw_energy:          -33.837139
##########                      Grid_es_energy:           -0.841807
##########           Internal_energy_repulsive:           12.350807

@<TRIPOS>MOLECULE
ZINC000740843182
 47 48 1 0 0
SMALL
USER_CHARGES


@<TRIPOS>ATOM
      1 C1          1.8725    0.6923   47.3785 C.3     1  ZINC000740843182   -0.1500
      2 C2          0.6163    1.5131   47.6771 C.3     1  ZINC000740843182   -0.1000
      3 H3         -0.2053    0.8418   47.9272 H       1  ZINC000740843182    0.0900
      4 C4          0.8872    2.4492   48.8566 C.3     1  ZINC000740843182    0.1200
      5 N5         -0.3850    2.8688   49.4494 N.am    1  ZINC000740843182   -0.7200
      6 C6         -1.0221    2.0608   50.3198 C.2     1  ZINC000740843182    0.5500
      7 O7         -0.5418    0.9829   50.6119 O.2     1  ZINC000740843182   -0.5000
      8 C8         -2.3047    2.4850   50.9191 C.ar    1  ZINC000740843182   -0.1300
      9 C9         -3.5032    1.9157   50.4861 C.ar    1  ZINC000740843182    0.0200
     10 C10        -4.6969    2.3157   51.0500 C.ar    1  ZINC000740843182   -0.6800
     11 S11        -6.2107    1.5979   50.5044 S.o2    1  ZINC000740843182    2.7000
     12 O12        -5.8681    0.3758   49.8655 O.2     1  ZINC000740843182   -0.9400
     13 O13        -7.1101    1.6756   51.6017 O.2     1  ZINC000740843182   -0.9500
     14 N14        -6.8248    2.5857   49.3255 N.am    1  ZINC000740843182   -1.0900
     15 C15        -7.1448    3.9818   49.6330 C.3     1  ZINC000740843182    0.0800
     16 C16        -7.1615    4.9755   48.4698 C.3     1  ZINC000740843182   -0.1800
     17 C17        -8.4756    4.5319   49.1160 C.3     1  ZINC000740843182   -0.1900
     18 C18        -4.7085    3.2790   52.0432 C.ar    1  ZINC000740843182    0.0100
     19 C19        -3.5250    3.8480   52.4778 C.ar    1  ZINC000740843182   -0.1200
     20 C20        -2.3225    3.4536   51.9257 C.ar    1  ZINC000740843182    0.0100
     21 Br21       -0.7053    4.2324   52.5207 Br      1  ZINC000740843182    0.0100
     22 C22         0.2425    2.3399   46.4453 C.3     1  ZINC000740843182   -0.1400
     23 C23        -1.0820    1.8314   45.8724 C.3     1  ZINC000740843182    0.1000
     24 H24        -1.8171    1.7507   46.6731 H       1  ZINC000740843182    0.1000
     25 C25        -0.8681    0.4566   45.2359 C.3     1  ZINC000740843182   -0.1900
     26 O26        -1.5552    2.7464   44.8820 O.3     1  ZINC000740843182   -0.5600
     27 H27         1.6795    0.0253   46.5382 H       1  ZINC000740843182    0.0600
     28 H28         2.6941    1.3635   47.1285 H       1  ZINC000740843182    0.0600
     29 H29         2.1388    0.1033   48.2562 H       1  ZINC000740843182    0.0500
     30 H30         1.4824    1.9269   49.6057 H       1  ZINC000740843182    0.0700
     31 H31         1.4318    3.3262   48.5067 H       1  ZINC000740843182    0.0700
     32 H32        -0.7689    3.7283   49.2154 H       1  ZINC000740843182    0.4000
     33 H33        -3.4960    1.1636   49.7110 H       1  ZINC000740843182    0.1500
     34 H34        -6.9726    2.2398   48.4315 H       1  ZINC000740843182    0.4200
     35 H35        -6.7921    4.3431   50.5991 H       1  ZINC000740843182    0.1400
     36 H36        -6.8196    5.9909   48.6703 H       1  ZINC000740843182    0.1100
     37 H37        -6.9345    4.5904   47.4757 H       1  ZINC000740843182    0.1000
     38 H38        -9.1129    3.8551   48.5470 H       1  ZINC000740843182    0.1000
     39 H39        -8.9981    5.2555   49.7416 H       1  ZINC000740843182    0.1100
     40 H40        -5.6462    3.5883   52.4810 H       1  ZINC000740843182    0.1600
     41 H41        -3.5411    4.5994   53.2534 H       1  ZINC000740843182    0.1500
     42 H42         0.1375    3.3871   46.7288 H       1  ZINC000740843182    0.0700
     43 H43         1.0247    2.2439   45.6922 H       1  ZINC000740843182    0.0800
     44 H44        -0.5072   -0.2413   45.9915 H       1  ZINC000740843182    0.0700
     45 H45        -1.8116    0.0944   44.8278 H       1  ZINC000740843182    0.0600
     46 H46        -0.1330    0.5373   44.4352 H       1  ZINC000740843182    0.0600
     47 H47        -2.4456    2.5509   44.5593 H       1  ZINC000740843182    0.3700
@<TRIPOS>BOND
     1     1     2    1
     2     1    27    1
     3     1    28    1
     4     1    29    1
     5     2     3    1
     6     2     4    1
     7     2    22    1
     8     4     5    1
     9     4    30    1
    10     4    31    1
    11     5     6   am
    12     5    32    1
    13     6     7    2
    14     6     8    1
    15     8    20   ar
    16     8     9   ar
    17     9    10   ar
    18     9    33    1
    19    10    11    1
    20    10    18   ar
    21    11    12    2
    22    11    13    2
    23    11    14   am
    24    14    15    1
    25    14    34    1
    26    15    17    1
    27    15    16    1
    28    15    35    1
    29    16    17    1
    30    16    36    1
    31    16    37    1
    32    17    38    1
    33    17    39    1
    34    18    19   ar
    35    18    40    1
    36    19    20   ar
    37    19    41    1
    38    20    21    1
    39    22    23    1
    40    22    42    1
    41    22    43    1
    42    23    24    1
    43    23    25    1
    44    23    26    1
    45    25    44    1
    46    25    45    1
    47    25    46    1
    48    26    47    1
@<TRIPOS>SUBSTRUCTURE
     1 ZINC000740843182        1 TEMP              0 ****  ****    0 ROOT


##########                                Name:     oleObject27.pdb
##########                DOCK_Rotatable_Bonds:                   9
##########                         Heavy_Atoms:                  35
##########                    Molecular_Weight:             513.466
##########                DOCK_Rotatable_Bonds:                   9
##########                       Formal_Charge:         0.000199873
##########                     HBond_Acceptors:                   8
##########                        HBond_Donors:                   1
##########                         Heavy_Atoms:                  35
##########                          Grid_Score:          -34.670403
##########                     Grid_vdw_energy:          -34.086395
##########                      Grid_es_energy:           -0.584008
##########           Internal_energy_repulsive:           13.709633

@<TRIPOS>MOLECULE
oleObject27.pdb
 65 68 1 0 0
SMALL
NO_CHARGES


@<TRIPOS>ATOM
      1 C         -12.2299   -1.6275   55.8781 C.ar    1  UNL        -0.0620
      2 C         -12.7789   -0.8181   54.8730 C.ar    1  UNL        -0.0590
      3 C         -12.1312    0.3653   54.4681 C.ar    1  UNL        -0.0456
      4 C         -10.9076    0.7392   55.0775 C.ar    1  UNL        -0.0187
      5 C         -10.3730   -0.0803   56.0959 C.ar    1  UNL        -0.0565
      6 C         -11.0271   -1.2560   56.4924 C.ar    1  UNL        -0.0619
      7 C         -10.1717    2.0224   54.6603 C.3     1  UNL         0.0921
      8 C          -9.4606    2.7037   55.8338 C.ar    1  UNL         0.0681
      9 C         -10.1352    3.5836   56.7168 C.ar    1  UNL        -0.0272
     10 C          -9.3998    4.1752   57.7612 C.ar    1  UNL        -0.0559
     11 C          -8.0334    3.8842   57.8854 C.ar    1  UNL        -0.0435
     12 C          -7.4440    3.0143   56.9560 C.ar    1  UNL         0.0272
     13 N          -8.1385    2.4431   55.9541 N.ar    1  UNL        -0.2587
     14 C         -11.6151    3.9159   56.5637 C.3     1  UNL        -0.0379
     15 N          -9.2324    1.8087   53.5497 N.am    1  UNL        -0.2865
     16 C          -8.6826    2.8287   52.7944 C.2     1  UNL         0.3014
     17 O          -8.9513    4.0002   53.0027 O.2     1  UNL        -0.2541
     18 N          -7.8103    2.4247   51.7819 N.am    1  UNL        -0.2833
     19 C          -7.1348    3.3969   50.8796 C.3     1  UNL         0.0284
     20 C          -6.5065    2.7794   49.6065 C.3     1  UNL         0.0142
     21 N          -5.7323    1.5593   49.8936 N.4     1  UNL        -0.2979
     22 C          -6.6176    0.5555   50.5165 C.3     1  UNL         0.0142
     23 C          -7.2304    1.0605   51.8430 C.3     1  UNL         0.0284
     24 C          -4.4622    1.8318   50.6085 C.3     1  UNL         0.0223
     25 C          -3.3055    0.9132   50.1661 C.3     1  UNL         0.0661
     26 O          -2.7355    1.4757   48.9713 O.3     1  UNL        -0.3432
     27 C          -1.7284    2.4215   48.9763 C.ar    1  UNL         0.0937
     28 C          -1.4120    3.1720   50.1290 C.ar    1  UNL        -0.0288
     29 C          -0.3798    4.1243   50.0910 C.ar    1  UNL        -0.0408
     30 C           0.3414    4.3329   48.9048 C.ar    1  UNL         0.0422
     31 C           0.0329    3.5903   47.7544 C.ar    1  UNL        -0.0221
     32 C          -0.9986    2.6373   47.7893 C.ar    1  UNL         0.0723
     33 CL         -1.3590    1.7265   46.3345 Cl      1  UNL        -0.0814
     34 CL          1.6270    5.5203   48.8608 Cl      1  UNL        -0.0843
     35 C         -12.7800    1.2173   53.3823 C.3     1  UNL        -0.0394
     36 H         -12.7390   -2.5372   56.1835 H       1  UNL         0.0623
     37 H         -13.7157   -1.1129   54.4086 H       1  UNL         0.0626
     38 H          -9.4471    0.1947   56.5923 H       1  UNL         0.0627
     39 H         -10.6023   -1.8762   57.2763 H       1  UNL         0.0623
     40 H         -10.9309    2.7113   54.2786 H       1  UNL         0.0625
     41 H          -9.8772    4.8531   58.4631 H       1  UNL         0.0627
     42 H          -7.4419    4.3275   58.6810 H       1  UNL         0.0639
     43 H          -6.3848    2.7668   57.0144 H       1  UNL         0.0840
     44 H         -11.8384    4.2680   55.5487 H       1  UNL         0.0280
     45 H         -11.9266    4.7058   57.2587 H       1  UNL         0.0280
     46 H         -12.2393    3.0364   56.7642 H       1  UNL         0.0280
     47 H          -9.0076    0.8567   53.2972 H       1  UNL         0.1521
     48 H          -6.3484    3.9019   51.4550 H       1  UNL         0.0484
     49 H          -7.8509    4.1610   50.5531 H       1  UNL         0.0484
     50 H          -5.8732    3.5266   49.1114 H       1  UNL         0.0447
     51 H          -7.3179    2.5301   48.9102 H       1  UNL         0.0447
     52 H          -6.0869   -0.3876   50.6914 H       1  UNL         0.0447
     53 H          -7.4404    0.3321   49.8250 H       1  UNL         0.0447
     54 H          -6.4542    1.0574   52.6186 H       1  UNL         0.0484
     55 H          -8.0069    0.3495   52.1532 H       1  UNL         0.0484
     56 H          -4.6004    1.7286   51.6922 H       1  UNL         0.0455
     57 H          -4.1586    2.8688   50.4150 H       1  UNL         0.0455
     58 H          -3.6934   -0.0939   49.9663 H       1  UNL         0.0586
     59 H          -2.5444    0.8575   50.9538 H       1  UNL         0.0586
     60 H          -1.9558    3.0268   51.0567 H       1  UNL         0.0652
     61 H          -0.1401    4.6993   50.9810 H       1  UNL         0.0639
     62 H           0.5916    3.7525   46.8369 H       1  UNL         0.0655
     63 H         -13.7670    0.8313   53.0989 H       1  UNL         0.0280
     64 H         -12.1635    1.2360   52.4749 H       1  UNL         0.0280
     65 H         -12.9217    2.2507   53.7220 H       1  UNL         0.0280
@<TRIPOS>BOND
     1     1     2   ar
     2     1     6   ar
     3     1    36    1
     4     2     3   ar
     5     2    37    1
     6     3     4   ar
     7     3    35    1
     8     4     5   ar
     9     4     7    1
    10     5     6   ar
    11     5    38    1
    12     6    39    1
    13     7     8    1
    14     7    15    1
    15     7    40    1
    16     8     9   ar
    17     8    13   ar
    18     9    10   ar
    19     9    14    1
    20    10    11   ar
    21    10    41    1
    22    11    12   ar
    23    11    42    1
    24    12    13   ar
    25    12    43    1
    26    14    44    1
    27    14    45    1
    28    14    46    1
    29    15    16   am
    30    15    47    1
    31    16    17    2
    32    16    18   am
    33    18    19    1
    34    18    23    1
    35    19    20    1
    36    19    48    1
    37    19    49    1
    38    20    21    1
    39    20    50    1
    40    20    51    1
    41    21    22    1
    42    21    24    1
    43    22    23    1
    44    22    52    1
    45    22    53    1
    46    23    54    1
    47    23    55    1
    48    24    25    1
    49    24    56    1
    50    24    57    1
    51    25    26    1
    52    25    58    1
    53    25    59    1
    54    26    27    1
    55    27    28   ar
    56    27    32   ar
    57    28    29   ar
    58    28    60    1
    59    29    30   ar
    60    29    61    1
    61    30    31   ar
    62    30    34    1
    63    31    32   ar
    64    31    62    1
    65    32    33    1
    66    35    63    1
    67    35    64    1
    68    35    65    1
@<TRIPOS>SUBSTRUCTURE
     1 UNL         1 TEMP              0 ****  ****    0 ROOT


##########                                Name:    ZINC000058043838
##########                DOCK_Rotatable_Bonds:                   8
##########                         Heavy_Atoms:                  29
##########                    Molecular_Weight:             412.469
##########                DOCK_Rotatable_Bonds:                   8
##########                       Formal_Charge:           0.0200001
##########                     HBond_Acceptors:                   9
##########                        HBond_Donors:                   0
##########                         Heavy_Atoms:                  29
##########                          Grid_Score:          -34.657391
##########                     Grid_vdw_energy:          -34.297157
##########                      Grid_es_energy:           -0.360234
##########           Internal_energy_repulsive:           10.234299

@<TRIPOS>MOLECULE
ZINC000058043838
 49 51 1 0 0
SMALL
USER_CHARGES


@<TRIPOS>ATOM
      1 C1          3.6404    2.0040   51.3141 C.3     1  ZINC000058043838    0.0300
      2 O2          3.8460    1.1809   50.1642 O.3     1  ZINC000058043838   -0.3800
      3 C3          3.0247    1.5271   49.0472 C.3     1  ZINC000058043838    0.0300
      4 C4          1.7066    0.7541   49.1244 C.3     1  ZINC000058043838    0.1000
      5 N5          0.5963    1.6465   48.7822 N.am    1  ZINC000058043838   -0.5200
      6 C6          0.4285    2.0557   47.5091 C.2     1  ZINC000058043838    0.5100
      7 O7          1.1975    1.6864   46.6471 O.2     1  ZINC000058043838   -0.4500
      8 C8         -0.7146    2.9724   47.1567 C.3     1  ZINC000058043838   -0.0900
      9 C9         -0.4036    3.6911   45.8692 C.ar    1  ZINC000058043838   -0.1400
     10 C10         0.2750    4.8999   45.8863 C.ar    1  ZINC000058043838   -0.0500
     11 C11         0.5397    5.5253   44.6772 C.ar    1  ZINC000058043838   -0.1700
     12 C12         0.1215    4.9271   43.5039 C.ar    1  ZINC000058043838    0.1300
     13 C13         0.4043    5.5975   42.1842 C.3     1  ZINC000058043838   -0.1100
     14 N14        -0.5220    3.7761   43.5255 N.ar    1  ZINC000058043838   -0.4800
     15 C15        -0.7863    3.1507   44.6559 C.ar    1  ZINC000058043838    0.1200
     16 C16        -0.2836    2.0711   49.7702 C.2     1  ZINC000058043838    0.3100
     17 N17        -1.5289    1.7225   49.8648 N.2     1  ZINC000058043838   -0.4700
     18 C18        -2.2201    2.2272   50.8772 C.2     1  ZINC000058043838    0.1100
     19 C19        -3.6514    1.9071   51.0976 C.ar    1  ZINC000058043838    0.0400
     20 C20        -4.1310    0.6260   50.8298 C.ar    1  ZINC000058043838   -0.0800
     21 C21        -5.4638    0.3338   51.0372 C.ar    1  ZINC000058043838   -0.0500
     22 C22        -6.3231    1.3094   51.5099 C.ar    1  ZINC000058043838   -0.0400
     23 N23        -7.7516    0.9898   51.7304 N.pl3   1  ZINC000058043838    0.0300
     24 O24        -8.1683   -0.1303   51.4957 O.2     1  ZINC000058043838   -0.1600
     25 O25        -8.5102    1.8470   52.1466 O.2     1  ZINC000058043838   -0.1600
     26 C26        -5.8525    2.5824   51.7778 C.ar    1  ZINC000058043838   -0.0500
     27 C27        -4.5207    2.8847   51.5787 C.ar    1  ZINC000058043838   -0.1100
     28 C28        -1.5335    3.0493   51.6909 C.2     1  ZINC000058043838   -0.2600
     29 S29         0.1205    3.1607   51.0935 S.3     1  ZINC000058043838    0.1500
     30 H30         3.8604    3.0415   51.0624 H       1  ZINC000058043838    0.0500
     31 H31         2.6034    1.9213   51.6395 H       1  ZINC000058043838    0.0400
     32 H32         4.3005    1.6772   52.1176 H       1  ZINC000058043838    0.0900
     33 H33         2.8197    2.5975   49.0649 H       1  ZINC000058043838    0.0600
     34 H34         3.5422    1.2714   48.1226 H       1  ZINC000058043838    0.0800
     35 H35         1.7325   -0.0793   48.4223 H       1  ZINC000058043838    0.1200
     36 H36         1.5677    0.3728   50.1361 H       1  ZINC000058043838    0.1000
     37 H37        -1.6257    2.3867   47.0349 H       1  ZINC000058043838    0.1100
     38 H38        -0.8552    3.7013   47.9549 H       1  ZINC000058043838    0.1100
     39 H39         0.5895    5.3440   46.8191 H       1  ZINC000058043838    0.1300
     40 H40         1.0660    6.4681   44.6530 H       1  ZINC000058043838    0.1400
     41 H41         1.3671    5.2574   41.8029 H       1  ZINC000058043838    0.0800
     42 H42        -0.3797    5.3418   41.4714 H       1  ZINC000058043838    0.0800
     43 H43         0.4300    6.6782   42.3239 H       1  ZINC000058043838    0.0800
     44 H44        -1.3155    2.2094   44.6340 H       1  ZINC000058043838    0.1500
     45 H45        -3.4611   -0.1363   50.4604 H       1  ZINC000058043838    0.1600
     46 H46        -5.8366   -0.6583   50.8298 H       1  ZINC000058043838    0.1600
     47 H47        -6.5279    3.3402   52.1467 H       1  ZINC000058043838    0.1600
     48 H48        -4.1543    3.8787   51.7885 H       1  ZINC000058043838    0.1500
     49 H49        -1.9272    3.5515   52.5622 H       1  ZINC000058043838    0.1800
@<TRIPOS>BOND
     1     1     2    1
     2     1    30    1
     3     1    31    1
     4     1    32    1
     5     2     3    1
     6     3     4    1
     7     3    33    1
     8     3    34    1
     9     4     5    1
    10     4    35    1
    11     4    36    1
    12     5     6   am
    13     5    16    1
    14     6     7    2
    15     6     8    1
    16     8     9    1
    17     8    37    1
    18     8    38    1
    19     9    15   ar
    20     9    10   ar
    21    10    11   ar
    22    10    39    1
    23    11    12   ar
    24    11    40    1
    25    12    13    1
    26    12    14   ar
    27    13    41    1
    28    13    42    1
    29    13    43    1
    30    14    15   ar
    31    15    44    1
    32    16    29    1
    33    16    17    2
    34    17    18    1
    35    18    19    1
    36    18    28    2
    37    19    27   ar
    38    19    20   ar
    39    20    21   ar
    40    20    45    1
    41    21    22   ar
    42    21    46    1
    43    22    23    1
    44    22    26   ar
    45    23    24    2
    46    23    25    2
    47    26    27   ar
    48    26    47    1
    49    27    48    1
    50    28    29    1
    51    28    49    1
@<TRIPOS>SUBSTRUCTURE
     1 ZINC000058043838        1 TEMP              0 ****  ****    0 ROOT


##########                                Name:    ZINC001328997126
##########                DOCK_Rotatable_Bonds:                   7
##########                         Heavy_Atoms:                  26
##########                    Molecular_Weight:             388.488
##########                DOCK_Rotatable_Bonds:                   7
##########                       Formal_Charge:           0.0299993
##########                     HBond_Acceptors:                  10
##########                        HBond_Donors:                   1
##########                         Heavy_Atoms:                  26
##########                          Grid_Score:          -34.650337
##########                     Grid_vdw_energy:          -31.959377
##########                      Grid_es_energy:           -2.690959
##########           Internal_energy_repulsive:            7.265288

@<TRIPOS>MOLECULE
ZINC001328997126
 54 56 1 0 0
SMALL
USER_CHARGES


@<TRIPOS>ATOM
      1 C1         -5.0825    1.2731   50.4016 C.3     1  ZINC001328997126   -0.1700
      2 C2         -6.4472    1.8891   50.0867 C.3     1  ZINC001328997126    0.1400
      3 N3         -7.2172    2.0290   51.3251 N.am    1  ZINC001328997126   -0.6300
      4 C4         -7.3089    3.2487   52.1422 C.3     1  ZINC001328997126    0.0700
      5 C5         -8.2325    2.8417   53.3066 C.3     1  ZINC001328997126    0.0700
      6 H6         -9.1344    3.4538   53.3108 H       1  ZINC001328997126    0.1200
      7 C7         -7.4968    2.9640   54.6426 C.3     1  ZINC001328997126    0.0500
      8 N8         -8.1899    2.1608   55.6585 N.3     1  ZINC001328997126   -0.5300
      9 C9         -9.5482    2.6691   55.8954 C.3     1  ZINC001328997126    0.0500
     10 C10       -10.2626    1.7602   56.8985 C.3     1  ZINC001328997126    0.0600
     11 N11        -9.4937    1.7170   58.1502 N.3     1  ZINC001328997126   -0.5200
     12 C12       -10.1868    0.9136   59.1662 C.3     1  ZINC001328997126    0.0400
     13 C13        -9.7948    1.3938   60.5397 C.2     1  ZINC001328997126    0.5200
     14 O14        -9.7055    2.5825   60.7639 O.2     1  ZINC001328997126   -0.5100
     15 N15        -9.5435    0.5026   61.5189 N.am    1  ZINC001328997126   -0.7300
     16 C16        -9.1607    0.9695   62.8538 C.3     1  ZINC001328997126    0.1600
     17 H17        -8.6185    1.9115   62.7710 H       1  ZINC001328997126    0.1100
     18 C18       -10.4214    1.1721   63.7123 C.3     1  ZINC001328997126   -0.1400
     19 C19        -9.9392    1.3365   65.1768 C.3     1  ZINC001328997126   -0.5800
     20 S20        -8.6455    0.0457   65.3178 S.o2    1  ZINC001328997126    2.4000
     21 O21        -7.5207    0.5793   66.0029 O.2     1  ZINC001328997126   -0.9300
     22 O22        -9.2367   -1.1667   65.7648 O.2     1  ZINC001328997126   -0.9300
     23 C23        -8.2661   -0.0852   63.5350 C.3     1  ZINC001328997126   -0.6100
     24 C24        -8.1355    1.2086   57.9133 C.3     1  ZINC001328997126    0.0500
     25 C25        -7.4211    2.1174   56.9102 C.3     1  ZINC001328997126    0.0600
     26 O26        -8.5608    1.4501   53.0266 O.3     1  ZINC001328997126   -0.3100
     27 C27        -7.9574    1.0684   51.8953 C.2     1  ZINC001328997126    0.6400
     28 O28        -8.0642   -0.0495   51.4315 O.2     1  ZINC001328997126   -0.5200
     29 H29        -4.5430    1.9197   51.0937 H       1  ZINC001328997126    0.0600
     30 H30        -5.2227    0.2920   50.8551 H       1  ZINC001328997126    0.0600
     31 H31        -4.5096    1.1690   49.4802 H       1  ZINC001328997126    0.0700
     32 H32        -6.3070    2.8703   49.6332 H       1  ZINC001328997126    0.0900
     33 H33        -6.9867    1.2426   49.3945 H       1  ZINC001328997126    0.0900
     34 H34        -6.3255    3.5345   52.5153 H       1  ZINC001328997126    0.0900
     35 H35        -7.7527    4.0619   51.5677 H       1  ZINC001328997126    0.0900
     36 H36        -6.4747    2.6029   54.5288 H       1  ZINC001328997126    0.0900
     37 H37        -7.4806    4.0084   54.9541 H       1  ZINC001328997126    0.0600
     38 H38        -9.4929    3.6810   56.2967 H       1  ZINC001328997126    0.0500
     39 H39       -10.1014    2.6798   54.9563 H       1  ZINC001328997126    0.0900
     40 H40       -11.2601    2.1518   57.0977 H       1  ZINC001328997126    0.0800
     41 H41       -10.3419    0.7546   56.4856 H       1  ZINC001328997126    0.0500
     42 H42       -11.2643    1.0176   59.0387 H       1  ZINC001328997126    0.1100
     43 H43        -9.9071   -0.1340   59.0540 H       1  ZINC001328997126    0.0700
     44 H44        -9.6159   -0.4479   61.3399 H       1  ZINC001328997126    0.4100
     45 H45       -10.9518    2.0685   63.3912 H       1  ZINC001328997126    0.1100
     46 H46       -11.0732    0.3023   63.6294 H       1  ZINC001328997126    0.0900
     47 H47        -9.5152    2.3280   65.3354 H       1  ZINC001328997126    0.1400
     48 H48       -10.7534    1.1462   65.8759 H       1  ZINC001328997126    0.1400
     49 H49        -8.5086   -1.0828   63.1687 H       1  ZINC001328997126    0.1400
     50 H50        -7.2152    0.1403   63.3542 H       1  ZINC001328997126    0.1500
     51 H51        -7.5822    1.1979   58.8524 H       1  ZINC001328997126    0.1000
     52 H52        -8.1908    0.1967   57.5120 H       1  ZINC001328997126    0.0400
     53 H53        -6.4236    1.7259   56.7110 H       1  ZINC001328997126    0.0800
     54 H54        -7.3417    3.1231   57.3231 H       1  ZINC001328997126    0.0500
@<TRIPOS>BOND
     1     1     2    1
     2     1    29    1
     3     1    30    1
     4     1    31    1
     5     2     3    1
     6     2    32    1
     7     2    33    1
     8     3    27   am
     9     3     4    1
    10     4     5    1
    11     4    34    1
    12     4    35    1
    13     5     6    1
    14     5     7    1
    15     5    26    1
    16     7     8    1
    17     7    36    1
    18     7    37    1
    19     8    25    1
    20     8     9    1
    21     9    10    1
    22     9    38    1
    23     9    39    1
    24    10    11    1
    25    10    40    1
    26    10    41    1
    27    11    12    1
    28    11    24    1
    29    12    13    1
    30    12    42    1
    31    12    43    1
    32    13    14    2
    33    13    15   am
    34    15    16    1
    35    15    44    1
    36    16    17    1
    37    16    23    1
    38    16    18    1
    39    18    19    1
    40    18    45    1
    41    18    46    1
    42    19    20    1
    43    19    47    1
    44    19    48    1
    45    20    21    2
    46    20    22    2
    47    20    23    1
    48    23    49    1
    49    23    50    1
    50    24    25    1
    51    24    51    1
    52    24    52    1
    53    25    53    1
    54    25    54    1
    55    26    27    1
    56    27    28    2
@<TRIPOS>SUBSTRUCTURE
     1 ZINC001328997126        1 TEMP              0 ****  ****    0 ROOT


##########                                Name:    ZINC000466160459
##########                DOCK_Rotatable_Bonds:                   9
##########                         Heavy_Atoms:                  30
##########                    Molecular_Weight:             420.512
##########                DOCK_Rotatable_Bonds:                   9
##########                       Formal_Charge:          -0.0300007
##########                     HBond_Acceptors:                  10
##########                        HBond_Donors:                   2
##########                         Heavy_Atoms:                  30
##########                          Grid_Score:          -34.614815
##########                     Grid_vdw_energy:          -34.698601
##########                      Grid_es_energy:            0.083787
##########           Internal_energy_repulsive:           95.659882

@<TRIPOS>MOLECULE
ZINC000466160459
 62 64 1 0 0
SMALL
USER_CHARGES


@<TRIPOS>ATOM
      1 C1         -7.8860    0.9791   58.5764 C.3     1  ZINC000466160459    0.0300
      2 O2         -6.9724    1.7373   57.7811 O.3     1  ZINC000466160459   -0.3900
      3 C3         -7.5535    2.2947   56.6005 C.3     1  ZINC000466160459    0.0500
      4 C4         -6.4862    3.0674   55.8227 C.3     1  ZINC000466160459    0.1200
      5 N5         -7.0635    3.5770   54.5764 N.am    1  ZINC000466160459   -0.7300
      6 C6         -6.2686    3.8201   53.5155 C.2     1  ZINC000466160459    0.5200
      7 O7         -5.0756    3.6156   53.5922 O.2     1  ZINC000466160459   -0.5200
      8 C8         -6.8621    4.3460   52.2340 C.3     1  ZINC000466160459   -0.1300
      9 H9         -7.0259    5.4200   52.3228 H       1  ZINC000466160459    0.1100
     10 C10        -8.1962    3.6464   51.9640 C.3     1  ZINC000466160459   -0.1000
     11 C11        -7.9725    2.1352   51.8727 C.3     1  ZINC000466160459   -0.1500
     12 C12        -7.0238    1.8330   50.7084 C.3     1  ZINC000466160459    0.1600
     13 H13        -7.5002    2.1094   49.7678 H       1  ZINC000466160459    0.0700
     14 C14        -6.6885    0.3403   50.6944 C.3     1  ZINC000466160459   -0.1400
     15 N15        -5.7931    2.6156   50.8859 N.am    1  ZINC000466160459   -0.6200
     16 C16        -4.5881    2.0119   50.8760 C.2     1  ZINC000466160459    0.7100
     17 O17        -4.5122    0.8087   50.7191 O.2     1  ZINC000466160459   -0.5500
     18 N18        -3.4672    2.7421   51.0401 N.am    1  ZINC000466160459   -0.7300
     19 C19        -2.1574    2.0860   51.0293 C.3     1  ZINC000466160459    0.1600
     20 H20        -2.2594    1.0679   51.4051 H       1  ZINC000466160459    0.1300
     21 C21        -1.1914    2.8646   51.9257 C.3     1  ZINC000466160459   -0.1400
     22 C22        -0.8476    4.1886   51.2329 C.3     1  ZINC000466160459   -0.1400
     23 C23        -0.0269    3.8863   49.9785 C.3     1  ZINC000466160459    0.1100
     24 N24        -0.6912    2.8750   49.1658 N.am    1  ZINC000466160459   -0.5200
     25 C25        -0.3188    2.7659   47.8190 C.2     1  ZINC000466160459    0.2800
     26 N26         0.3808    1.7903   47.2893 N.2     1  ZINC000466160459   -0.2600
     27 N27         0.5355    2.0558   45.9227 N.pl3   1  ZINC000466160459   -0.3800
     28 C28         1.2524    1.2171   44.9589 C.3     1  ZINC000466160459    0.1000
     29 C29        -0.0917    3.2191   45.6491 C.2     1  ZINC000466160459    0.0700
     30 C30        -0.6342    3.6784   46.7996 C.2     1  ZINC000466160459   -0.2900
     31 C31        -1.6298    2.0485   49.6238 C.2     1  ZINC000466160459    0.4900
     32 O32        -2.0837    1.2184   48.8648 O.2     1  ZINC000466160459   -0.4700
     33 C33        -5.9005    4.0695   51.0740 C.3     1  ZINC000466160459    0.1200
     34 H34        -7.3683    0.5903   59.4533 H       1  ZINC000466160459    0.0900
     35 H35        -8.7087    1.6195   58.8944 H       1  ZINC000466160459    0.0400
     36 H36        -8.2778    0.1494   57.9881 H       1  ZINC000466160459    0.0400
     37 H37        -7.9486    1.4931   55.9766 H       1  ZINC000466160459    0.0600
     38 H38        -8.3618    2.9711   56.8781 H       1  ZINC000466160459    0.0700
     39 H39        -6.1301    3.9024   56.4262 H       1  ZINC000466160459    0.0800
     40 H40        -5.6527    2.4039   55.5925 H       1  ZINC000466160459    0.0800
     41 H41        -8.0178    3.7394   54.5147 H       1  ZINC000466160459    0.4000
     42 H42        -8.8904    3.8623   52.7764 H       1  ZINC000466160459    0.0700
     43 H43        -8.6130    4.0093   51.0245 H       1  ZINC000466160459    0.0700
     44 H44        -7.5328    1.7756   52.8030 H       1  ZINC000466160459    0.1000
     45 H45        -8.9265    1.6358   51.7038 H       1  ZINC000466160459    0.0700
     46 H46        -7.6114   -0.2393   50.6733 H       1  ZINC000466160459    0.0400
     47 H47        -6.0944    0.1097   49.8100 H       1  ZINC000466160459    0.0800
     48 H48        -6.1207    0.0870   51.5897 H       1  ZINC000466160459    0.0600
     49 H49        -3.5278    3.7022   51.1651 H       1  ZINC000466160459    0.3900
     50 H50        -1.6639    3.0654   52.8872 H       1  ZINC000466160459    0.0900
     51 H51        -0.2821    2.2830   52.0776 H       1  ZINC000466160459    0.0900
     52 H52        -1.7663    4.7044   50.9534 H       1  ZINC000466160459    0.0700
     53 H53        -0.2651    4.8147   51.9088 H       1  ZINC000466160459    0.1000
     54 H54         0.0881    4.7993   49.3944 H       1  ZINC000466160459    0.0900
     55 H55         0.9581    3.5231   50.2713 H       1  ZINC000466160459    0.0800
     56 H56         0.5627    0.4949   44.5220 H       1  ZINC000466160459    0.0700
     57 H57         1.6691    1.8443   44.1707 H       1  ZINC000466160459    0.0900
     58 H58         2.0589    0.6882   45.4667 H       1  ZINC000466160459    0.0900
     59 H59        -0.1532    3.6963   44.6822 H       1  ZINC000466160459    0.1800
     60 H60        -1.2027    4.5895   46.9153 H       1  ZINC000466160459    0.1500
     61 H61        -6.2852    4.5283   50.1631 H       1  ZINC000466160459    0.0900
     62 H62        -4.9185    4.4814   51.3065 H       1  ZINC000466160459    0.0700
@<TRIPOS>BOND
     1     1     2    1
     2     1    34    1
     3     1    35    1
     4     1    36    1
     5     2     3    1
     6     3     4    1
     7     3    37    1
     8     3    38    1
     9     4     5    1
    10     4    39    1
    11     4    40    1
    12     5     6   am
    13     5    41    1
    14     6     7    2
    15     6     8    1
    16     8     9    1
    17     8    33    1
    18     8    10    1
    19    10    11    1
    20    10    42    1
    21    10    43    1
    22    11    12    1
    23    11    44    1
    24    11    45    1
    25    12    13    1
    26    12    14    1
    27    12    15    1
    28    14    46    1
    29    14    47    1
    30    14    48    1
    31    15    16   am
    32    15    33    1
    33    16    17    2
    34    16    18   am
    35    18    19    1
    36    18    49    1
    37    19    20    1
    38    19    31    1
    39    19    21    1
    40    21    22    1
    41    21    50    1
    42    21    51    1
    43    22    23    1
    44    22    52    1
    45    22    53    1
    46    23    24    1
    47    23    54    1
    48    23    55    1
    49    24    25    1
    50    24    31   am
    51    25    30    1
    52    25    26    2
    53    26    27    1
    54    27    28    1
    55    27    29    1
    56    28    56    1
    57    28    57    1
    58    28    58    1
    59    29    30    2
    60    29    59    1
    61    30    60    1
    62    31    32    2
    63    33    61    1
    64    33    62    1
@<TRIPOS>SUBSTRUCTURE
     1 ZINC000466160459        1 TEMP              0 ****  ****    0 ROOT


##########                                Name:    ZINC001340305486
##########                DOCK_Rotatable_Bonds:                   8
##########                         Heavy_Atoms:                  27
##########                    Molecular_Weight:             378.431
##########                DOCK_Rotatable_Bonds:                   8
##########                       Formal_Charge:          0.00999955
##########                     HBond_Acceptors:                  10
##########                        HBond_Donors:                   2
##########                         Heavy_Atoms:                  27
##########                          Grid_Score:          -34.605358
##########                     Grid_vdw_energy:          -33.885841
##########                      Grid_es_energy:           -0.719517
##########           Internal_energy_repulsive:           10.422385

@<TRIPOS>MOLECULE
ZINC001340305486
 53 55 1 0 0
SMALL
USER_CHARGES


@<TRIPOS>ATOM
      1 C1         -0.0761    6.3292   41.1021 C.3     1  ZINC001340305486    0.0900
      2 N2          0.1896    5.8377   42.4564 N.am    1  ZINC001340305486   -0.7300
      3 C3          0.7329    4.6175   42.6359 C.2     1  ZINC001340305486    0.5200
      4 O4          1.0005    3.9257   41.6764 O.2     1  ZINC001340305486   -0.5100
      5 C5          1.0080    4.1126   44.0289 C.3     1  ZINC001340305486    0.0600
      6 H6          1.8519    3.4231   44.0062 H       1  ZINC001340305486    0.0900
      7 C7         -0.2316    3.3872   44.5647 C.3     1  ZINC001340305486    0.0900
      8 N8         -0.0068    3.0704   45.9840 N.am    1  ZINC001340305486   -0.5800
      9 C9         -0.2060    1.8241   46.4567 C.2     1  ZINC001340305486    0.5100
     10 O10        -0.5758    0.9432   45.7083 O.2     1  ZINC001340305486   -0.5200
     11 C11         0.0285    1.5268   47.9024 C.2     1  ZINC001340305486    0.5200
     12 O12         0.9827    0.8556   48.2368 O.2     1  ZINC001340305486   -0.5000
     13 N13        -0.8196    2.0040   48.8348 N.am    1  ZINC001340305486   -0.6900
     14 C14        -0.5906    1.7110   50.2518 C.3     1  ZINC001340305486    0.1200
     15 C15        -1.6585    2.4094   51.0960 C.3     1  ZINC001340305486   -0.0400
     16 C16        -2.9978    1.7658   50.8445 C.2     1  ZINC001340305486    0.1700
     17 N17        -3.2204    0.6857   50.1432 N.2     1  ZINC001340305486   -0.2800
     18 N18        -4.4800    0.4193   50.1445 N.2     1  ZINC001340305486   -0.2900
     19 C19        -5.1135    1.3130   50.8491 C.2     1  ZINC001340305486    0.1900
     20 C20        -6.5920    1.3672   51.1341 C.3     1  ZINC001340305486   -0.0400
     21 C21        -7.0950    2.7949   50.9010 C.3     1  ZINC001340305486   -0.1200
     22 C22        -6.9452    3.6056   52.1848 C.3     1  ZINC001340305486   -0.1300
     23 C23        -5.7107    3.1527   52.9629 C.3     1  ZINC001340305486   -0.1400
     24 C24        -4.4542    3.3830   52.1186 C.3     1  ZINC001340305486    0.1000
     25 N25        -4.1934    2.1939   51.3066 N.pl3   1  ZINC001340305486   -0.4600
     26 C26         0.4416    4.1547   46.8721 C.3     1  ZINC001340305486    0.0200
     27 C27         1.6484    4.8427   46.2239 C.3     1  ZINC001340305486    0.0500
     28 O28         1.3155    5.2158   44.8846 O.3     1  ZINC001340305486   -0.3500
     29 H29         0.8575    6.3716   40.5412 H       1  ZINC001340305486    0.0600
     30 H30        -0.7708    5.6553   40.6008 H       1  ZINC001340305486    0.0600
     31 H31        -0.5128    7.3264   41.1566 H       1  ZINC001340305486    0.0800
     32 H32        -0.0255    6.3905   43.2238 H       1  ZINC001340305486    0.4000
     33 H33        -1.1053    4.0317   44.4663 H       1  ZINC001340305486    0.0900
     34 H34        -0.3892    2.4662   44.0034 H       1  ZINC001340305486    0.1100
     35 H35        -1.5816    2.5414   48.5676 H       1  ZINC001340305486    0.4200
     36 H36        -0.6460    0.6344   50.4138 H       1  ZINC001340305486    0.0900
     37 H37         0.3959    2.0719   50.5427 H       1  ZINC001340305486    0.0800
     38 H38        -1.4041    2.3182   52.1519 H       1  ZINC001340305486    0.0900
     39 H39        -1.7052    3.4638   50.8232 H       1  ZINC001340305486    0.1100
     40 H40        -7.1170    0.6825   50.4680 H       1  ZINC001340305486    0.1000
     41 H41        -6.7743    1.0811   52.1701 H       1  ZINC001340305486    0.0900
     42 H42        -6.5108    3.2606   50.1074 H       1  ZINC001340305486    0.0600
     43 H43        -8.1451    2.7670   50.6098 H       1  ZINC001340305486    0.0800
     44 H44        -6.8448    4.6616   51.9338 H       1  ZINC001340305486    0.0700
     45 H45        -7.8316    3.4664   52.8037 H       1  ZINC001340305486    0.0800
     46 H46        -5.6355    3.7240   53.8882 H       1  ZINC001340305486    0.0900
     47 H47        -5.7997    2.0922   53.1989 H       1  ZINC001340305486    0.0800
     48 H48        -4.6054    4.2452   51.4692 H       1  ZINC001340305486    0.0900
     49 H49        -3.6035    3.5665   52.7751 H       1  ZINC001340305486    0.1000
     50 H50        -0.3643    4.8764   47.0060 H       1  ZINC001340305486    0.0800
     51 H51         0.7298    3.7418   47.8388 H       1  ZINC001340305486    0.1700
     52 H52         1.9102    5.7331   46.7954 H       1  ZINC001340305486    0.1200
     53 H53         2.4949    4.1560   46.2101 H       1  ZINC001340305486    0.0600
@<TRIPOS>BOND
     1     1     2    1
     2     1    29    1
     3     1    30    1
     4     1    31    1
     5     2     3   am
     6     2    32    1
     7     3     4    2
     8     3     5    1
     9     5     6    1
    10     5    28    1
    11     5     7    1
    12     7     8    1
    13     7    33    1
    14     7    34    1
    15     8     9   am
    16     8    26    1
    17     9    10    2
    18     9    11    1
    19    11    12    2
    20    11    13   am
    21    13    14    1
    22    13    35    1
    23    14    15    1
    24    14    36    1
    25    14    37    1
    26    15    16    1
    27    15    38    1
    28    15    39    1
    29    16    25    1
    30    16    17    2
    31    17    18    1
    32    18    19    2
    33    19    25    1
    34    19    20    1
    35    20    21    1
    36    20    40    1
    37    20    41    1
    38    21    22    1
    39    21    42    1
    40    21    43    1
    41    22    23    1
    42    22    44    1
    43    22    45    1
    44    23    24    1
    45    23    46    1
    46    23    47    1
    47    24    25    1
    48    24    48    1
    49    24    49    1
    50    26    27    1
    51    26    50    1
    52    26    51    1
    53    27    28    1
    54    27    52    1
    55    27    53    1
@<TRIPOS>SUBSTRUCTURE
     1 ZINC001340305486        1 TEMP              0 ****  ****    0 ROOT


##########                                Name:    ZINC000298969660
##########                DOCK_Rotatable_Bonds:                  10
##########                         Heavy_Atoms:                  29
##########                    Molecular_Weight:             397.474
##########                DOCK_Rotatable_Bonds:                  10
##########                       Formal_Charge:          -0.0100008
##########                     HBond_Acceptors:                   7
##########                        HBond_Donors:                   2
##########                         Heavy_Atoms:                  29
##########                          Grid_Score:          -34.600086
##########                     Grid_vdw_energy:          -33.092766
##########                      Grid_es_energy:           -1.507321
##########           Internal_energy_repulsive:           16.435404

@<TRIPOS>MOLECULE
ZINC000298969660
 56 58 1 0 0
SMALL
USER_CHARGES


@<TRIPOS>ATOM
      1 C1         -6.7563    0.9874   50.6348 C.3     1  ZINC000298969660    0.0800
      2 N2         -5.7029    1.9693   50.9041 N.am    1  ZINC000298969660   -0.6300
      3 C3         -6.0381    3.2488   51.5337 C.3     1  ZINC000298969660    0.1400
      4 C4         -7.3683    3.7588   50.9758 C.3     1  ZINC000298969660    0.0700
      5 H5         -8.0753    2.9320   50.9088 H       1  ZINC000298969660    0.0500
      6 C6         -7.1436    4.3528   49.5828 C.3     1  ZINC000298969660   -0.1500
      7 C7         -8.4676    4.9150   49.0563 C.3     1  ZINC000298969660   -0.1200
      8 C8         -9.0011    5.9509   50.0508 C.3     1  ZINC000298969660   -0.1600
      9 C9         -9.1540    5.2952   51.4258 C.3     1  ZINC000298969660    0.0600
     10 O10        -7.8938    4.7661   51.8428 O.3     1  ZINC000298969660   -0.3600
     11 C11        -4.4256    1.6952   50.5728 C.2     1  ZINC000298969660    0.7100
     12 O12        -4.1478    0.6338   50.0490 O.2     1  ZINC000298969660   -0.5400
     13 N13        -3.4562    2.5978   50.8221 N.am    1  ZINC000298969660   -0.6900
     14 C14        -2.1300    2.3132   50.4781 C.ar    1  ZINC000298969660    0.2000
     15 C15        -1.1229    2.4420   51.4256 C.ar    1  ZINC000298969660   -0.1800
     16 C16         0.1867    2.1615   51.0858 C.ar    1  ZINC000298969660   -0.0600
     17 C17         0.4977    1.7521   49.8034 C.ar    1  ZINC000298969660   -0.2300
     18 C18        -0.5048    1.6216   48.8522 C.ar    1  ZINC000298969660    0.1500
     19 O19        -0.1973    1.2191   47.5911 O.3     1  ZINC000298969660   -0.2900
     20 C20        -0.8325    1.9132   46.5155 C.3     1  ZINC000298969660    0.0400
     21 C21         0.1473    2.0911   45.3844 C.2     1  ZINC000298969660    0.5100
     22 O22         0.2350    3.1614   44.8207 O.2     1  ZINC000298969660   -0.4900
     23 N23         0.9260    1.0607   44.9991 N.am    1  ZINC000298969660   -0.6700
     24 C24         1.8357    1.2259   43.9488 C.ar    1  ZINC000298969660    0.1400
     25 C25         1.7224    0.4513   42.8017 C.ar    1  ZINC000298969660   -0.1400
     26 C26         2.6219    0.6168   41.7669 C.ar    1  ZINC000298969660   -0.1000
     27 C27         3.6350    1.5520   41.8722 C.ar    1  ZINC000298969660   -0.1300
     28 C28         3.7509    2.3245   43.0133 C.ar    1  ZINC000298969660   -0.1000
     29 C29         2.8505    2.1686   44.0490 C.ar    1  ZINC000298969660   -0.1200
     30 C30        -1.8202    1.8966   49.1909 C.ar    1  ZINC000298969660   -0.1500
     31 H31        -7.1688    1.1604   49.6407 H       1  ZINC000298969660    0.0600
     32 H32        -6.3374   -0.0177   50.6843 H       1  ZINC000298969660    0.0700
     33 H33        -7.5465    1.0888   51.3787 H       1  ZINC000298969660    0.0800
     34 H34        -6.1248    3.1117   52.6116 H       1  ZINC000298969660    0.1000
     35 H35        -5.2531    3.9748   51.3219 H       1  ZINC000298969660    0.0900
     36 H36        -6.4061    5.1531   49.6426 H       1  ZINC000298969660    0.0800
     37 H37        -6.7846    3.5750   48.9088 H       1  ZINC000298969660    0.0700
     38 H38        -8.3034    5.3894   48.0888 H       1  ZINC000298969660    0.0700
     39 H39        -9.1905    4.1063   48.9494 H       1  ZINC000298969660    0.0600
     40 H40        -8.3011    6.7835   50.1201 H       1  ZINC000298969660    0.0700
     41 H41        -9.9705    6.3160   49.7115 H       1  ZINC000298969660    0.0700
     42 H42        -9.4928    6.0387   52.1473 H       1  ZINC000298969660    0.0900
     43 H43        -9.8846    4.4886   51.3646 H       1  ZINC000298969660    0.0400
     44 H44        -3.6779    3.4446   51.2401 H       1  ZINC000298969660    0.4100
     45 H45        -1.3634    2.7619   52.4288 H       1  ZINC000298969660    0.1300
     46 H46         0.9686    2.2629   51.8238 H       1  ZINC000298969660    0.1300
     47 H47         1.5222    1.5335   49.5406 H       1  ZINC000298969660    0.1300
     48 H48        -1.6893    1.3367   46.1669 H       1  ZINC000298969660    0.1000
     49 H49        -1.1687    2.8904   46.8620 H       1  ZINC000298969660    0.1000
     50 H50         0.8558    0.2048   45.4499 H       1  ZINC000298969660    0.4100
     51 H51         0.9317   -0.2798   42.7192 H       1  ZINC000298969660    0.1300
     52 H52         2.5342    0.0147   40.8746 H       1  ZINC000298969660    0.1300
     53 H53         4.3373    1.6792   41.0618 H       1  ZINC000298969660    0.1200
     54 H54         4.5436    3.0536   43.0929 H       1  ZINC000298969660    0.1300
     55 H55         2.9416    2.7722   44.9399 H       1  ZINC000298969660    0.1300
     56 H56        -2.6015    1.7956   48.4522 H       1  ZINC000298969660    0.1500
@<TRIPOS>BOND
     1     1     2    1
     2     1    31    1
     3     1    32    1
     4     1    33    1
     5     2     3    1
     6     2    11   am
     7     3     4    1
     8     3    34    1
     9     3    35    1
    10     4     5    1
    11     4    10    1
    12     4     6    1
    13     6     7    1
    14     6    36    1
    15     6    37    1
    16     7     8    1
    17     7    38    1
    18     7    39    1
    19     8     9    1
    20     8    40    1
    21     8    41    1
    22     9    10    1
    23     9    42    1
    24     9    43    1
    25    11    12    2
    26    11    13   am
    27    13    14    1
    28    13    44    1
    29    14    30   ar
    30    14    15   ar
    31    15    16   ar
    32    15    45    1
    33    16    17   ar
    34    16    46    1
    35    17    18   ar
    36    17    47    1
    37    18    19    1
    38    18    30   ar
    39    19    20    1
    40    20    21    1
    41    20    48    1
    42    20    49    1
    43    21    22    2
    44    21    23   am
    45    23    24    1
    46    23    50    1
    47    24    29   ar
    48    24    25   ar
    49    25    26   ar
    50    25    51    1
    51    26    27   ar
    52    26    52    1
    53    27    28   ar
    54    27    53    1
    55    28    29   ar
    56    28    54    1
    57    29    55    1
    58    30    56    1
@<TRIPOS>SUBSTRUCTURE
     1 ZINC000298969660        1 TEMP              0 ****  ****    0 ROOT


##########                                Name:    ZINC001139743874
##########                DOCK_Rotatable_Bonds:                   5
##########                         Heavy_Atoms:                  28
##########                    Molecular_Weight:             382.506
##########                DOCK_Rotatable_Bonds:                   5
##########                       Formal_Charge:           0.0199992
##########                     HBond_Acceptors:                   6
##########                        HBond_Donors:                   0
##########                         Heavy_Atoms:                  28
##########                          Grid_Score:          -34.572666
##########                     Grid_vdw_energy:          -34.570484
##########                      Grid_es_energy:           -0.002182
##########           Internal_energy_repulsive:           16.385576

@<TRIPOS>MOLECULE
ZINC001139743874
 58 61 1 0 0
SMALL
USER_CHARGES


@<TRIPOS>ATOM
      1 C1          3.0283    2.3331   43.2419 C.3     1  ZINC001139743874   -0.1800
      2 C2          3.4855    0.8796   43.1029 C.3     1  ZINC001139743874    0.1400
      3 C3          3.3202    0.4296   41.6500 C.3     1  ZINC001139743874   -0.1800
      4 C4          4.9567    0.7669   43.5076 C.3     1  ZINC001139743874   -0.1400
      5 O5          2.6799    0.0343   43.9660 O.3     1  ZINC001139743874   -0.3600
      6 C6          1.3729    0.3392   44.0731 C.2     1  ZINC001139743874    0.6500
      7 O7          0.7054    0.5117   43.0726 O.2     1  ZINC001139743874   -0.5700
      8 N8          0.8051    0.4532   45.2901 N.am    1  ZINC001139743874   -0.5900
      9 C9         -0.5802    0.7761   45.4221 C.3     1  ZINC001139743874    0.1000
     10 C10        -0.9245    2.2928   45.4087 C.3     1  ZINC001139743874   -0.1300
     11 C11         0.1478    3.0705   46.2254 C.3     1  ZINC001139743874   -0.0900
     12 C12         0.5757    2.3155   47.4409 C.3     1  ZINC001139743874   -0.0800
     13 C13         0.6303    3.1222   48.7437 C.3     1  ZINC001139743874    0.0100
     14 N14        -0.7495    2.6380   48.9777 N.3     1  ZINC001139743874   -0.4700
     15 C15        -0.9346    2.2323   50.3773 C.3     1  ZINC001139743874    0.0600
     16 C16        -2.4040    2.2375   50.7117 C.ar    1  ZINC001139743874   -0.1200
     17 C17        -2.9713    3.3435   51.3417 C.ar    1  ZINC001139743874    0.1500
     18 N18        -4.2457    3.3821   51.6471 N.ar    1  ZINC001139743874   -0.4600
     19 C19        -5.0574    2.3601   51.3661 C.ar    1  ZINC001139743874    0.0800
     20 C20        -6.4271    2.4049   51.6952 C.ar    1  ZINC001139743874   -0.0400
     21 C21        -7.2024    1.3266   51.3803 C.ar    1  ZINC001139743874   -0.1600
     22 C22        -6.6350    0.2202   50.7503 C.ar    1  ZINC001139743874    0.1300
     23 N23        -5.3607    0.1813   50.4453 N.ar    1  ZINC001139743874   -0.4700
     24 C24        -4.5489    1.2036   50.7261 C.ar    1  ZINC001139743874    0.0800
     25 C25        -3.1807    1.1610   50.3924 C.ar    1  ZINC001139743874   -0.0400
     26 C26        -0.5064    1.4614   48.1118 C.3     1  ZINC001139743874    0.0000
     27 C27         1.8665    1.5474   47.1408 C.3     1  ZINC001139743874   -0.1300
     28 C28         1.6105    0.2382   46.5336 C.3     1  ZINC001139743874    0.1400
     29 H29         1.9802    2.4135   42.9535 H       1  ZINC001139743874    0.0900
     30 H30         3.1461    2.6536   44.2769 H       1  ZINC001139743874    0.0600
     31 H31         3.6330    2.9677   42.5940 H       1  ZINC001139743874    0.0700
     32 H32         3.9249    1.0642   41.0021 H       1  ZINC001139743874    0.0700
     33 H33         3.6460   -0.6058   41.5510 H       1  ZINC001139743874    0.0600
     34 H34         2.2721    0.5100   41.3617 H       1  ZINC001139743874    0.0900
     35 H35         5.0744    1.0874   44.5427 H       1  ZINC001139743874    0.0700
     36 H36         5.2823   -0.2686   43.4086 H       1  ZINC001139743874    0.0700
     37 H37         5.5614    1.4015   42.8597 H       1  ZINC001139743874    0.0800
     38 H38        -1.1213    0.2964   44.6065 H       1  ZINC001139743874    0.0700
     39 H39        -0.9412    0.3528   46.3594 H       1  ZINC001139743874    0.0900
     40 H40        -0.9323    2.6550   44.3806 H       1  ZINC001139743874    0.0700
     41 H41        -1.9060    2.4470   45.8570 H       1  ZINC001139743874    0.0800
     42 H42         1.0174    3.2464   45.5924 H       1  ZINC001139743874    0.0600
     43 H43        -0.2669    4.0309   46.5317 H       1  ZINC001139743874    0.0700
     44 H44         1.3567    2.7459   49.4639 H       1  ZINC001139743874    0.0700
     45 H45         0.6985    4.1994   48.5914 H       1  ZINC001139743874    0.0900
     46 H46        -0.5328    1.2292   50.5211 H       1  ZINC001139743874    0.0600
     47 H47        -0.4109    2.9304   51.0303 H       1  ZINC001139743874    0.0900
     48 H48        -2.3456    4.1896   51.5846 H       1  ZINC001139743874    0.1700
     49 H49        -6.8518    3.2693   52.1840 H       1  ZINC001139743874    0.1500
     50 H50        -8.2556    1.3305   51.6194 H       1  ZINC001139743874    0.1500
     51 H51        -7.2606   -0.6262   50.5076 H       1  ZINC001139743874    0.1700
     52 H52        -2.7568    0.2980   49.9005 H       1  ZINC001139743874    0.1400
     53 H53        -1.3428    1.2171   47.4568 H       1  ZINC001139743874    0.1000
     54 H54        -0.1151    0.5956   48.6458 H       1  ZINC001139743874    0.0700
     55 H55         2.4795    2.1394   46.4613 H       1  ZINC001139743874    0.0700
     56 H56         2.4149    1.4019   48.0716 H       1  ZINC001139743874    0.0800
     57 H57         1.0559   -0.3886   47.2320 H       1  ZINC001139743874    0.0800
     58 H58         2.5565   -0.2408   46.2811 H       1  ZINC001139743874    0.1000
@<TRIPOS>BOND
     1     1     2    1
     2     1    29    1
     3     1    30    1
     4     1    31    1
     5     2     3    1
     6     2     4    1
     7     2     5    1
     8     3    32    1
     9     3    33    1
    10     3    34    1
    11     4    35    1
    12     4    36    1
    13     4    37    1
    14     5     6    1
    15     6     7    2
    16     6     8   am
    17     8    28    1
    18     8     9    1
    19     9    10    1
    20     9    38    1
    21     9    39    1
    22    10    11    1
    23    10    40    1
    24    10    41    1
    25    11    12    1
    26    11    42    1
    27    11    43    1
    28    12    26    1
    29    12    13    1
    30    12    27    1
    31    13    14    1
    32    13    44    1
    33    13    45    1
    34    14    15    1
    35    14    26    1
    36    15    16    1
    37    15    46    1
    38    15    47    1
    39    16    25   ar
    40    16    17   ar
    41    17    18   ar
    42    17    48    1
    43    18    19   ar
    44    19    24   ar
    45    19    20   ar
    46    20    21   ar
    47    20    49    1
    48    21    22   ar
    49    21    50    1
    50    22    23   ar
    51    22    51    1
    52    23    24   ar
    53    24    25   ar
    54    25    52    1
    55    26    53    1
    56    26    54    1
    57    27    28    1
    58    27    55    1
    59    27    56    1
    60    28    57    1
    61    28    58    1
@<TRIPOS>SUBSTRUCTURE
     1 ZINC001139743874        1 TEMP              0 ****  ****    0 ROOT


##########                                Name:    ZINC001408567397
##########                DOCK_Rotatable_Bonds:                   9
##########                         Heavy_Atoms:                  24
##########                    Molecular_Weight:             336.434
##########                DOCK_Rotatable_Bonds:                   9
##########                       Formal_Charge:          -0.0199996
##########                     HBond_Acceptors:                   7
##########                        HBond_Donors:                   2
##########                         Heavy_Atoms:                  24
##########                          Grid_Score:          -34.571003
##########                     Grid_vdw_energy:          -32.648869
##########                      Grid_es_energy:           -1.922133
##########           Internal_energy_repulsive:           16.219320

@<TRIPOS>MOLECULE
ZINC001408567397
 52 53 1 0 0
SMALL
USER_CHARGES


@<TRIPOS>ATOM
      1 C1          0.2566    0.9086   48.1656 C.3     1  ZINC001408567397   -0.0800
      2 C2          0.3255    1.4326   49.5769 C.2     1  ZINC001408567397    0.0900
      3 N3          1.3434    1.3144   50.3903 N.2     1  ZINC001408567397   -0.2900
      4 N4          1.0098    1.9335   51.6017 N.pl3   1  ZINC001408567397   -0.4700
      5 C5         -0.2413    2.4259   51.4859 C.2     1  ZINC001408567397    0.1100
      6 C6         -1.0047    3.1718   52.5497 C.3     1  ZINC001408567397   -0.1000
      7 C7         -0.6855    2.1347   50.2413 C.2     1  ZINC001408567397   -0.2200
      8 C8         -2.0343    2.4953   49.6744 C.3     1  ZINC001408567397   -0.0600
      9 C9         -3.0389    1.4394   50.0577 C.2     1  ZINC001408567397    0.5100
     10 O10        -2.7423    0.2656   49.9860 O.2     1  ZINC001408567397   -0.5300
     11 N11        -4.2671    1.7994   50.4802 N.am    1  ZINC001408567397   -0.7300
     12 C12        -5.2432    0.7730   50.8546 C.3     1  ZINC001408567397    0.1100
     13 C13        -6.5894    1.0862   50.1987 C.3     1  ZINC001408567397    0.1000
     14 N14        -7.4412    1.8036   51.1507 N.am    1  ZINC001408567397   -0.6200
     15 C15        -7.3278    3.2582   51.2832 C.3     1  ZINC001408567397    0.0700
     16 C16        -8.3291    1.1254   51.9044 C.2     1  ZINC001408567397    0.5100
     17 O17        -8.4219   -0.0789   51.7958 O.2     1  ZINC001408567397   -0.5300
     18 C18        -9.2065    1.8636   52.8824 C.3     1  ZINC001408567397   -0.1300
     19 C19       -10.1486    0.8736   53.5703 C.3     1  ZINC001408567397   -0.1100
     20 H20        -9.5921   -0.0178   53.8597 H       1  ZINC001408567397    0.0900
     21 C21       -10.7550    1.5256   54.8167 C.3     1  ZINC001408567397   -0.1200
     22 C22       -11.7544    0.5545   55.4525 C.3     1  ZINC001408567397   -0.1600
     23 C23       -12.8180    0.1787   54.4176 C.3     1  ZINC001408567397    0.0600
     24 O24       -12.1845   -0.3938   53.2717 O.3     1  ZINC001408567397   -0.3800
     25 C25       -11.2734    0.4843   52.6076 C.3     1  ZINC001408567397    0.0600
     26 H26         0.6267    1.6685   47.4773 H       1  ZINC001408567397    0.0800
     27 H27         0.8702    0.0117   48.0806 H       1  ZINC001408567397    0.0700
     28 H28        -0.7770    0.6666   47.9179 H       1  ZINC001408567397    0.0800
     29 H29         1.5778    1.9970   52.3856 H       1  ZINC001408567397    0.4400
     30 H30        -0.8065    4.2396   52.4579 H       1  ZINC001408567397    0.0800
     31 H31        -2.0721    2.9884   52.4271 H       1  ZINC001408567397    0.0900
     32 H32        -0.6874    2.8268   53.5339 H       1  ZINC001408567397    0.0700
     33 H33        -2.3503    3.4591   50.0733 H       1  ZINC001408567397    0.1000
     34 H34        -1.9676    2.5558   48.5881 H       1  ZINC001408567397    0.1000
     35 H35        -4.5048    2.7382   50.5364 H       1  ZINC001408567397    0.4000
     36 H36        -4.8926   -0.2022   50.5168 H       1  ZINC001408567397    0.0700
     37 H37        -5.3607    0.7615   51.9382 H       1  ZINC001408567397    0.0700
     38 H38        -6.4285    1.7059   49.3167 H       1  ZINC001408567397    0.0800
     39 H39        -7.0759    0.1559   49.9055 H       1  ZINC001408567397    0.0900
     40 H40        -8.0127    3.7411   50.5862 H       1  ZINC001408567397    0.0600
     41 H41        -7.5804    3.5510   52.3023 H       1  ZINC001408567397    0.0800
     42 H42        -6.3060    3.5648   51.0599 H       1  ZINC001408567397    0.0800
     43 H43        -8.5840    2.3531   53.6313 H       1  ZINC001408567397    0.1000
     44 H44        -9.7925    2.6132   52.3506 H       1  ZINC001408567397    0.1000
     45 H45        -9.9635    1.7537   55.5305 H       1  ZINC001408567397    0.0700
     46 H46       -11.2688    2.4444   54.5342 H       1  ZINC001408567397    0.0600
     47 H47       -11.2312   -0.3441   55.7799 H       1  ZINC001408567397    0.0700
     48 H48       -12.2316    1.0315   56.3086 H       1  ZINC001408567397    0.0700
     49 H49       -13.5075   -0.5454   54.8515 H       1  ZINC001408567397    0.0900
     50 H50       -13.3678    1.0718   54.1208 H       1  ZINC001408567397    0.0500
     51 H51       -11.8022    1.3819   52.2866 H       1  ZINC001408567397    0.0400
     52 H52       -10.8515   -0.0196   51.7380 H       1  ZINC001408567397    0.1100
@<TRIPOS>BOND
     1     1     2    1
     2     1    26    1
     3     1    27    1
     4     1    28    1
     5     2     7    1
     6     2     3    2
     7     3     4    1
     8     4     5    1
     9     4    29    1
    10     5     6    1
    11     5     7    2
    12     6    30    1
    13     6    31    1
    14     6    32    1
    15     7     8    1
    16     8     9    1
    17     8    33    1
    18     8    34    1
    19     9    10    2
    20     9    11   am
    21    11    12    1
    22    11    35    1
    23    12    13    1
    24    12    36    1
    25    12    37    1
    26    13    14    1
    27    13    38    1
    28    13    39    1
    29    14    15    1
    30    14    16   am
    31    15    40    1
    32    15    41    1
    33    15    42    1
    34    16    17    2
    35    16    18    1
    36    18    19    1
    37    18    43    1
    38    18    44    1
    39    19    20    1
    40    19    25    1
    41    19    21    1
    42    21    22    1
    43    21    45    1
    44    21    46    1
    45    22    23    1
    46    22    47    1
    47    22    48    1
    48    23    24    1
    49    23    49    1
    50    23    50    1
    51    24    25    1
    52    25    51    1
    53    25    52    1
@<TRIPOS>SUBSTRUCTURE
     1 ZINC001408567397        1 TEMP              0 ****  ****    0 ROOT


##########                                Name:    ZINC000489403631
##########                DOCK_Rotatable_Bonds:                   7
##########                         Heavy_Atoms:                  28
##########                    Molecular_Weight:             381.391
##########                DOCK_Rotatable_Bonds:                   7
##########                       Formal_Charge:          -0.0300003
##########                     HBond_Acceptors:                   9
##########                        HBond_Donors:                   1
##########                         Heavy_Atoms:                  28
##########                          Grid_Score:          -34.553917
##########                     Grid_vdw_energy:          -34.311249
##########                      Grid_es_energy:           -0.242668
##########           Internal_energy_repulsive:           13.844957

@<TRIPOS>MOLECULE
ZINC000489403631
 47 49 1 0 0
SMALL
USER_CHARGES


@<TRIPOS>ATOM
      1 C1         -6.0845   -0.0681   50.5274 C.3     1  ZINC000489403631   -0.1100
      2 C2         -5.0283    0.9617   50.8353 C.ar    1  ZINC000489403631   -0.0800
      3 C3         -3.7301    0.7680   50.4076 C.ar    1  ZINC000489403631   -0.0900
      4 C4         -2.7568    1.7172   50.6914 C.ar    1  ZINC000489403631    0.1200
      5 N5         -1.4394    1.5213   50.2573 N.am    1  ZINC000489403631   -0.6600
      6 C6         -1.0400    2.0188   49.0701 C.2     1  ZINC000489403631    0.5100
      7 O7         -1.8212    2.6362   48.3775 O.2     1  ZINC000489403631   -0.4600
      8 C8          0.3773    1.8080   48.6032 C.3     1  ZINC000489403631    0.1700
      9 C9          0.4336    0.5910   47.6776 C.3     1  ZINC000489403631   -0.1700
     10 C10         0.8541    3.0482   47.8446 C.3     1  ZINC000489403631   -0.1700
     11 N11         1.2446    1.5809   49.7618 N.pl3   1  ZINC000489403631   -0.3400
     12 C12         2.1938    0.6277   49.8683 C.2     1  ZINC000489403631    0.1500
     13 C13         2.7679    0.7516   51.0874 C.2     1  ZINC000489403631   -0.1900
     14 N14         3.8594   -0.0910   51.6256 N.pl3   1  ZINC000489403631    0.0700
     15 O15         4.3028    0.1249   52.7393 O.2     1  ZINC000489403631   -0.1700
     16 O16         4.3141   -1.0002   50.9547 O.2     1  ZINC000489403631   -0.1600
     17 C17         2.1481    1.8169   51.7487 C.2     1  ZINC000489403631    0.1000
     18 N18         1.2390    2.3186   50.9526 N.2     1  ZINC000489403631   -0.2200
     19 C19        -3.0901    2.8604   51.4051 C.ar    1  ZINC000489403631   -0.1100
     20 C20        -4.3891    3.0531   51.8324 C.ar    1  ZINC000489403631   -0.1700
     21 C21        -5.3621    2.1074   51.5437 C.ar    1  ZINC000489403631    0.1000
     22 O22        -6.6408    2.2976   51.9646 O.3     1  ZINC000489403631   -0.2500
     23 C23        -7.4521    3.0770   51.2056 C.ar    1  ZINC000489403631    0.1400
     24 C24        -8.5922    3.6639   51.7497 C.ar    1  ZINC000489403631   -0.2000
     25 C25        -9.3913    4.4496   50.9450 C.ar    1  ZINC000489403631    0.1200
     26 N26        -9.0868    4.6474   49.6763 N.ar    1  ZINC000489403631   -0.4900
     27 C27        -8.0157    4.1089   49.1246 C.ar    1  ZINC000489403631    0.1200
     28 C28        -7.1629    3.3153   49.8640 C.ar    1  ZINC000489403631   -0.1800
     29 H29        -6.5530    0.1664   49.5716 H       1  ZINC000489403631    0.0700
     30 H30        -5.6251   -1.0551   50.4743 H       1  ZINC000489403631    0.0700
     31 H31        -6.8395   -0.0606   51.3136 H       1  ZINC000489403631    0.0700
     32 H32        -3.4713   -0.1218   49.8528 H       1  ZINC000489403631    0.1500
     33 H33        -0.8146    1.0275   50.8112 H       1  ZINC000489403631    0.4100
     34 H34        -0.2117    0.7600   46.8155 H       1  ZINC000489403631    0.1000
     35 H35         1.4587    0.4386   47.3398 H       1  ZINC000489403631    0.0900
     36 H36         0.0940   -0.2925   48.2180 H       1  ZINC000489403631    0.0800
     37 H37         0.8139    3.9153   48.5039 H       1  ZINC000489403631    0.0800
     38 H38         1.8791    2.8958   47.5068 H       1  ZINC000489403631    0.0900
     39 H39         0.2088    3.2172   46.9825 H       1  ZINC000489403631    0.0900
     40 H40         2.4494   -0.1032   49.1154 H       1  ZINC000489403631    0.2000
     41 H41         2.3828    2.1679   52.7426 H       1  ZINC000489403631    0.2100
     42 H42        -2.3336    3.5987   51.6264 H       1  ZINC000489403631    0.1300
     43 H43        -4.6486    3.9424   52.3876 H       1  ZINC000489403631    0.1300
     44 H44        -8.8473    3.5058   52.7871 H       1  ZINC000489403631    0.1400
     45 H45       -10.2774    4.9083   51.3585 H       1  ZINC000489403631    0.1600
     46 H46        -7.8018    4.2949   48.0825 H       1  ZINC000489403631    0.1700
     47 H47        -6.2879    2.8778   49.4066 H       1  ZINC000489403631    0.1500
@<TRIPOS>BOND
     1     1     2    1
     2     1    29    1
     3     1    30    1
     4     1    31    1
     5     2    21   ar
     6     2     3   ar
     7     3     4   ar
     8     3    32    1
     9     4     5    1
    10     4    19   ar
    11     5     6   am
    12     5    33    1
    13     6     7    2
    14     6     8    1
    15     8     9    1
    16     8    10    1
    17     8    11    1
    18     9    34    1
    19     9    35    1
    20     9    36    1
    21    10    37    1
    22    10    38    1
    23    10    39    1
    24    11    18    1
    25    11    12    1
    26    12    13    2
    27    12    40    1
    28    13    14    1
    29    13    17    1
    30    14    15    2
    31    14    16    2
    32    17    18    2
    33    17    41    1
    34    19    20   ar
    35    19    42    1
    36    20    21   ar
    37    20    43    1
    38    21    22    1
    39    22    23    1
    40    23    28   ar
    41    23    24   ar
    42    24    25   ar
    43    24    44    1
    44    25    26   ar
    45    25    45    1
    46    26    27   ar
    47    27    28   ar
    48    27    46    1
    49    28    47    1
@<TRIPOS>SUBSTRUCTURE
     1 ZINC000489403631        1 TEMP              0 ****  ****    0 ROOT


##########                                Name:    ZINC000185598309
##########                DOCK_Rotatable_Bonds:                  14
##########                         Heavy_Atoms:                  25
##########                    Molecular_Weight:             347.457
##########                DOCK_Rotatable_Bonds:                  14
##########                       Formal_Charge:               -0.02
##########                     HBond_Acceptors:                   6
##########                        HBond_Donors:                   4
##########                         Heavy_Atoms:                  25
##########                          Grid_Score:          -34.513279
##########                     Grid_vdw_energy:          -34.291183
##########                      Grid_es_energy:           -0.222096
##########           Internal_energy_repulsive:           12.641198

@<TRIPOS>MOLECULE
ZINC000185598309
 54 54 1 0 0
SMALL
USER_CHARGES


@<TRIPOS>ATOM
      1 C1         -7.1138    9.2136   46.7709 C.3     1  ZINC000185598309   -0.1300
      2 C2         -7.0474    8.3232   47.9849 C.2     1  ZINC000185598309   -0.1600
      3 C3         -7.3094    7.0444   47.8743 C.2     1  ZINC000185598309   -0.1600
      4 C4         -7.2448    6.1542   49.0885 C.3     1  ZINC000185598309   -0.0900
      5 C5         -8.2176    4.9859   48.9167 C.3     1  ZINC000185598309    0.1700
      6 H6         -7.9717    4.4391   48.0064 H       1  ZINC000185598309    0.1000
      7 C7         -9.6470    5.5227   48.8189 C.3     1  ZINC000185598309    0.0600
      8 O8        -10.5653    4.4285   48.7818 O.3     1  ZINC000185598309   -0.5700
      9 N9         -8.1110    4.0881   50.0695 N.am    1  ZINC000185598309   -0.7300
     10 C10        -7.2770    3.0303   50.0250 C.2     1  ZINC000185598309    0.7000
     11 O11        -6.6120    2.8220   49.0287 O.2     1  ZINC000185598309   -0.5900
     12 N12        -7.1802    2.2036   51.0850 N.am    1  ZINC000185598309   -0.7400
     13 C13        -6.2749    1.0527   51.0359 C.3     1  ZINC000185598309    0.1800
     14 C14        -4.8479    1.5329   51.1035 C.ar    1  ZINC000185598309   -0.0900
     15 C15        -4.5051    2.5601   51.9629 C.ar    1  ZINC000185598309   -0.1100
     16 C16        -3.1968    3.0040   52.0276 C.ar    1  ZINC000185598309   -0.1000
     17 C17        -2.2285    2.4217   51.2337 C.ar    1  ZINC000185598309   -0.1100
     18 C18        -2.5697    1.3893   50.3695 C.ar    1  ZINC000185598309    0.1400
     19 N19        -1.5909    0.7968   49.5641 N.am    1  ZINC000185598309   -0.6800
     20 C20        -1.0362    1.4954   48.5536 C.2     1  ZINC000185598309    0.5200
     21 O21        -1.3856    2.6374   48.3424 O.2     1  ZINC000185598309   -0.5200
     22 C22         0.0179    0.8572   47.6861 C.3     1  ZINC000185598309   -0.1100
     23 H23        -0.2335   -0.1902   47.5198 H       1  ZINC000185598309    0.1000
     24 C24         1.3770    0.9510   48.3826 C.3     1  ZINC000185598309   -0.1500
     25 C25         0.0822    1.5859   46.3422 C.3     1  ZINC000185598309   -0.1100
     26 C26        -1.1295    1.1968   45.4928 C.3     1  ZINC000185598309   -0.1600
     27 C27        -3.8831    0.9425   50.3108 C.ar    1  ZINC000185598309   -0.1300
     28 H28        -6.8664   10.2361   47.0564 H       1  ZINC000185598309    0.0600
     29 H29        -6.4021    8.8628   46.0236 H       1  ZINC000185598309    0.0600
     30 H30        -8.1209    9.1861   46.3549 H       1  ZINC000185598309    0.0600
     31 H31        -6.7839    8.7392   48.9461 H       1  ZINC000185598309    0.1100
     32 H32        -7.5716    6.6281   46.9128 H       1  ZINC000185598309    0.1100
     33 H33        -6.2315    5.7694   49.2035 H       1  ZINC000185598309    0.0900
     34 H34        -7.5184    6.7276   49.9743 H       1  ZINC000185598309    0.0800
     35 H35        -9.8607    6.1471   49.6864 H       1  ZINC000185598309    0.0500
     36 H36        -9.7511    6.1154   47.9102 H       1  ZINC000185598309    0.0500
     37 H37       -11.4925    4.6951   48.7159 H       1  ZINC000185598309    0.3800
     38 H38        -8.6407    4.2550   50.8648 H       1  ZINC000185598309    0.4000
     39 H39        -7.7099    2.3704   51.8803 H       1  ZINC000185598309    0.4000
     40 H40        -6.4773    0.3948   51.8810 H       1  ZINC000185598309    0.0700
     41 H41        -6.4309    0.5072   50.1052 H       1  ZINC000185598309    0.0800
     42 H42        -5.2604    3.0171   52.5849 H       1  ZINC000185598309    0.1300
     43 H43        -2.9322    3.8071   52.6995 H       1  ZINC000185598309    0.1300
     44 H44        -1.2072    2.7690   51.2844 H       1  ZINC000185598309    0.1300
     45 H45        -1.3115   -0.1166   49.7329 H       1  ZINC000185598309    0.4100
     46 H46         1.3312    0.4320   49.3400 H       1  ZINC000185598309    0.0600
     47 H47         2.1395    0.4896   47.7551 H       1  ZINC000185598309    0.0800
     48 H48         1.6284    1.9985   48.5489 H       1  ZINC000185598309    0.0600
     49 H49         0.0762    2.6625   46.5121 H       1  ZINC000185598309    0.0700
     50 H50         0.9970    1.3054   45.8203 H       1  ZINC000185598309    0.0700
     51 H51        -1.1235    0.1201   45.3230 H       1  ZINC000185598309    0.0600
     52 H52        -2.0443    1.4773   46.0148 H       1  ZINC000185598309    0.0600
     53 H53        -1.0836    1.7158   44.5354 H       1  ZINC000185598309    0.0600
     54 H54        -4.1515    0.1398   49.6398 H       1  ZINC000185598309    0.1300
@<TRIPOS>BOND
     1     1     2    1
     2     1    28    1
     3     1    29    1
     4     1    30    1
     5     2     3    2
     6     2    31    1
     7     3     4    1
     8     3    32    1
     9     4     5    1
    10     4    33    1
    11     4    34    1
    12     5     6    1
    13     5     7    1
    14     5     9    1
    15     7     8    1
    16     7    35    1
    17     7    36    1
    18     8    37    1
    19     9    10   am
    20     9    38    1
    21    10    11    2
    22    10    12   am
    23    12    13    1
    24    12    39    1
    25    13    14    1
    26    13    40    1
    27    13    41    1
    28    14    27   ar
    29    14    15   ar
    30    15    16   ar
    31    15    42    1
    32    16    17   ar
    33    16    43    1
    34    17    18   ar
    35    17    44    1
    36    18    19    1
    37    18    27   ar
    38    19    20   am
    39    19    45    1
    40    20    21    2
    41    20    22    1
    42    22    23    1
    43    22    24    1
    44    22    25    1
    45    24    46    1
    46    24    47    1
    47    24    48    1
    48    25    26    1
    49    25    49    1
    50    25    50    1
    51    26    51    1
    52    26    52    1
    53    26    53    1
    54    27    54    1
@<TRIPOS>SUBSTRUCTURE
     1 ZINC000185598309        1 TEMP              0 ****  ****    0 ROOT


##########                                Name:    ZINC000420486261
##########                DOCK_Rotatable_Bonds:                   7
##########                         Heavy_Atoms:                  26
##########                    Molecular_Weight:             353.378
##########                DOCK_Rotatable_Bonds:                   7
##########                       Formal_Charge:        -2.98023e-08
##########                     HBond_Acceptors:                   7
##########                        HBond_Donors:                   0
##########                         Heavy_Atoms:                  26
##########                          Grid_Score:          -34.510818
##########                     Grid_vdw_energy:          -33.904453
##########                      Grid_es_energy:           -0.606364
##########           Internal_energy_repulsive:            7.680056

@<TRIPOS>MOLECULE
ZINC000420486261
 45 47 1 0 0
SMALL
USER_CHARGES


@<TRIPOS>ATOM
      1 C1         -7.4460    4.0621   49.5446 C.3     1  ZINC000420486261    0.0400
      2 O2         -8.0031    4.0962   50.8851 O.3     1  ZINC000420486261   -0.3500
      3 C3         -7.6608    3.0925   51.7151 C.2     1  ZINC000420486261    0.5100
      4 O4         -8.2056    2.9850   52.7949 O.2     1  ZINC000420486261   -0.4900
      5 C5         -6.6200    2.1202   51.3110 C.ar    1  ZINC000420486261   -0.0700
      6 C6         -6.9549    0.7986   50.9977 C.ar    1  ZINC000420486261   -0.0900
      7 C7         -5.9541   -0.0811   50.6236 C.ar    1  ZINC000420486261    0.1100
      8 N8         -4.6988    0.3067   50.5594 N.ar    1  ZINC000420486261   -0.4200
      9 C9         -4.3322    1.5495   50.8470 C.ar    1  ZINC000420486261    0.1900
     10 C10        -2.9051    1.9314   50.7575 C.2     1  ZINC000420486261    0.2200
     11 N11        -1.9003    1.1430   50.4290 N.2     1  ZINC000420486261   -0.4300
     12 C12        -0.7988    1.9214   50.4805 C.2     1  ZINC000420486261    0.2200
     13 C13         0.5924    1.4953   50.1920 C.ar    1  ZINC000420486261   -0.0600
     14 C14         1.5861    1.6524   51.1551 C.ar    1  ZINC000420486261   -0.0300
     15 C15         2.8791    1.2543   50.8818 C.ar    1  ZINC000420486261   -0.1600
     16 C16         3.1927    0.6993   49.6536 C.ar    1  ZINC000420486261   -0.0600
     17 C17         2.2147    0.5389   48.6908 C.ar    1  ZINC000420486261   -0.2200
     18 C18         0.9109    0.9288   48.9537 C.ar    1  ZINC000420486261    0.1700
     19 O19        -0.0513    0.7716   48.0084 O.3     1  ZINC000420486261   -0.2900
     20 C20         0.2325    1.2794   46.7032 C.3     1  ZINC000420486261    0.0600
     21 C21        -0.8435    2.2917   46.3049 C.3     1  ZINC000420486261   -0.0900
     22 C22        -0.2927    3.7102   46.4629 C.3     1  ZINC000420486261   -0.1500
     23 C23        -1.2464    2.0605   44.8470 C.3     1  ZINC000420486261   -0.1500
     24 N24        -1.1851    3.1216   50.8318 N.2     1  ZINC000420486261   -0.3400
     25 O25        -2.3873    3.1473   50.9897 O.3     1  ZINC000420486261    0.1000
     26 C26        -5.2778    2.4998   51.2267 C.ar    1  ZINC000420486261   -0.0700
     27 H27        -7.8007    4.9254   48.9816 H       1  ZINC000420486261    0.1100
     28 H28        -6.3578    4.0882   49.6025 H       1  ZINC000420486261    0.0700
     29 H29        -7.7613    3.1470   49.0433 H       1  ZINC000420486261    0.0700
     30 H30        -7.9820    0.4686   51.0475 H       1  ZINC000420486261    0.1600
     31 H31        -6.2078   -1.1025   50.3808 H       1  ZINC000420486261    0.1800
     32 H32         1.3453    2.0855   52.1147 H       1  ZINC000420486261    0.1400
     33 H33         3.6491    1.3770   51.6292 H       1  ZINC000420486261    0.1300
     34 H34         4.2066    0.3905   49.4465 H       1  ZINC000420486261    0.1300
     35 H35         2.4654    0.1050   47.7341 H       1  ZINC000420486261    0.1400
     36 H36         1.2069    1.7676   46.7073 H       1  ZINC000420486261    0.0600
     37 H37         0.2408    0.4574   45.9875 H       1  ZINC000420486261    0.0600
     38 H38        -1.7154    2.1667   46.9470 H       1  ZINC000420486261    0.0800
     39 H39         0.5791    3.8351   45.8207 H       1  ZINC000420486261    0.0600
     40 H40        -1.0592    4.4313   46.1791 H       1  ZINC000420486261    0.0700
     41 H41        -0.0057    3.8750   47.5014 H       1  ZINC000420486261    0.0600
     42 H42        -0.3746    2.1853   44.2049 H       1  ZINC000420486261    0.0500
     43 H43        -1.6389    1.0498   44.7345 H       1  ZINC000420486261    0.0600
     44 H44        -2.0130    2.7816   44.5632 H       1  ZINC000420486261    0.0600
     45 H45        -4.9775    3.5106   51.4599 H       1  ZINC000420486261    0.1600
@<TRIPOS>BOND
     1     1     2    1
     2     1    27    1
     3     1    28    1
     4     1    29    1
     5     2     3    1
     6     3     4    2
     7     3     5    1
     8     5    26   ar
     9     5     6   ar
    10     6     7   ar
    11     6    30    1
    12     7     8   ar
    13     7    31    1
    14     8     9   ar
    15     9    10    1
    16     9    26   ar
    17    10    25    1
    18    10    11    2
    19    11    12    1
    20    12    13    1
    21    12    24    2
    22    13    18   ar
    23    13    14   ar
    24    14    15   ar
    25    14    32    1
    26    15    16   ar
    27    15    33    1
    28    16    17   ar
    29    16    34    1
    30    17    18   ar
    31    17    35    1
    32    18    19    1
    33    19    20    1
    34    20    21    1
    35    20    36    1
    36    20    37    1
    37    21    22    1
    38    21    23    1
    39    21    38    1
    40    22    39    1
    41    22    40    1
    42    22    41    1
    43    23    42    1
    44    23    43    1
    45    23    44    1
    46    24    25    1
    47    26    45    1
@<TRIPOS>SUBSTRUCTURE
     1 ZINC000420486261        1 TEMP              0 ****  ****    0 ROOT


##########                                Name:    ZINC000746432885
##########                DOCK_Rotatable_Bonds:                  11
##########                         Heavy_Atoms:                  31
##########                    Molecular_Weight:              419.44
##########                DOCK_Rotatable_Bonds:                  11
##########                       Formal_Charge:           0.0199995
##########                     HBond_Acceptors:                   9
##########                        HBond_Donors:                   2
##########                         Heavy_Atoms:                  31
##########                          Grid_Score:          -34.506851
##########                     Grid_vdw_energy:          -32.688526
##########                      Grid_es_energy:           -1.818327
##########           Internal_energy_repulsive:           14.630551

@<TRIPOS>MOLECULE
ZINC000746432885
 52 54 1 0 0
SMALL
USER_CHARGES


@<TRIPOS>ATOM
      1 C1         -1.6611    4.1622   55.0878 C.3     1  ZINC000746432885    0.0300
      2 O2         -0.4428    4.6526   54.5243 O.3     1  ZINC000746432885   -0.3200
      3 C3          0.1026    3.9305   53.5104 C.ar    1  ZINC000746432885    0.1300
      4 C4          1.4806    3.8080   53.4075 C.ar    1  ZINC000746432885   -0.2000
      5 C5          2.0325    3.0736   52.3758 C.ar    1  ZINC000746432885   -0.0800
      6 C6          1.2127    2.4612   51.4460 C.ar    1  ZINC000746432885   -0.1400
      7 C7         -0.1610    2.5818   51.5463 C.ar    1  ZINC000746432885   -0.0600
      8 C8         -1.0517    1.9126   50.5314 C.3     1  ZINC000746432885    0.2300
      9 N9         -2.4545    2.1559   50.8770 N.am    1  ZINC000746432885   -0.6900
     10 C10        -3.3883    1.2247   50.5987 C.2     1  ZINC000746432885    0.5200
     11 O11        -3.0668    0.1841   50.0632 O.2     1  ZINC000746432885   -0.5100
     12 C12        -4.8183    1.4734   50.9493 C.2     1  ZINC000746432885    0.5100
     13 O13        -5.6918    0.7888   50.4573 O.2     1  ZINC000746432885   -0.5100
     14 N14        -5.1393    2.4578   51.8120 N.am    1  ZINC000746432885   -0.6100
     15 C15        -6.4845    2.6907   52.1432 C.2     1  ZINC000746432885    0.0000
     16 C16        -7.4811    3.0011   51.2737 C.2     1  ZINC000746432885    0.0400
     17 N17        -8.6196    3.1440   51.9892 N.pl3   1  ZINC000746432885   -0.3800
     18 C18        -9.9395    3.4788   51.4491 C.3     1  ZINC000746432885    0.2500
     19 C19        -9.7797    4.2706   50.2185 C.1     1  ZINC000746432885    0.1900
     20 N20        -9.6566    4.8817   49.2689 N.1     1  ZINC000746432885   -0.3900
     21 N21        -8.3156    2.9151   53.3371 N.2     1  ZINC000746432885   -0.2800
     22 C22        -7.0404    2.6384   53.4308 C.2     1  ZINC000746432885    0.0700
     23 C23        -0.7663    2.4767   49.1633 C.ar    1  ZINC000746432885   -0.0500
     24 C24        -0.7798    3.8447   48.9636 C.ar    1  ZINC000746432885   -0.1500
     25 C25        -0.5179    4.3653   47.7097 C.ar    1  ZINC000746432885   -0.0700
     26 C26        -0.2422    3.5191   46.6531 C.ar    1  ZINC000746432885   -0.2000
     27 C27        -0.2282    2.1461   46.8508 C.ar    1  ZINC000746432885    0.1300
     28 O28         0.0427    1.3117   45.8130 O.3     1  ZINC000746432885   -0.3200
     29 C29        -1.0160    1.0649   44.8855 C.3     1  ZINC000746432885    0.0300
     30 C30        -0.4861    1.6265   48.1111 C.ar    1  ZINC000746432885   -0.1300
     31 C31        -0.7180    3.3100   52.5796 C.ar    1  ZINC000746432885   -0.1300
     32 H32        -1.4976    3.1641   55.4941 H       1  ZINC000746432885    0.0600
     33 H33        -1.9873    4.8300   55.8852 H       1  ZINC000746432885    0.1000
     34 H34        -2.4276    4.1186   54.3141 H       1  ZINC000746432885    0.0600
     35 H35         2.1214    4.2868   54.1331 H       1  ZINC000746432885    0.1300
     36 H36         3.1053    2.9778   52.2953 H       1  ZINC000746432885    0.1300
     37 H37         1.6460    1.8881   50.6397 H       1  ZINC000746432885    0.1200
     38 H38        -0.8586    0.8399   50.5296 H       1  ZINC000746432885    0.1200
     39 H39        -2.7112    2.9871   51.3060 H       1  ZINC000746432885    0.4200
     40 H40        -4.4414    3.0056   52.2042 H       1  ZINC000746432885    0.4200
     41 H41        -7.3818    3.1138   50.2041 H       1  ZINC000746432885    0.1900
     42 H42       -10.4829    2.5614   51.2228 H       1  ZINC000746432885    0.1300
     43 H43       -10.4967    4.0590   52.1847 H       1  ZINC000746432885    0.1500
     44 H44        -6.5063    2.4147   54.3424 H       1  ZINC000746432885    0.2100
     45 H45        -0.9955    4.5078   49.7883 H       1  ZINC000746432885    0.1200
     46 H46        -0.5294    5.4343   47.5561 H       1  ZINC000746432885    0.1300
     47 H47        -0.0382    3.9263   45.6738 H       1  ZINC000746432885    0.1300
     48 H48        -0.6673    0.3844   44.1087 H       1  ZINC000746432885    0.1000
     49 H49        -1.8604    0.6166   45.4090 H       1  ZINC000746432885    0.0600
     50 H50        -1.3279    2.0055   44.4315 H       1  ZINC000746432885    0.0600
     51 H51        -0.4757    0.5580   48.2677 H       1  ZINC000746432885    0.1400
     52 H52        -1.7911    3.4039   52.6576 H       1  ZINC000746432885    0.1300
@<TRIPOS>BOND
     1     1     2    1
     2     1    32    1
     3     1    33    1
     4     1    34    1
     5     2     3    1
     6     3    31   ar
     7     3     4   ar
     8     4     5   ar
     9     4    35    1
    10     5     6   ar
    11     5    36    1
    12     6     7   ar
    13     6    37    1
    14     7     8    1
    15     7    31   ar
    16     8     9    1
    17     8    23    1
    18     8    38    1
    19     9    10   am
    20     9    39    1
    21    10    11    2
    22    10    12    1
    23    12    13    2
    24    12    14   am
    25    14    15    1
    26    14    40    1
    27    15    22    1
    28    15    16    2
    29    16    17    1
    30    16    41    1
    31    17    18    1
    32    17    21    1
    33    18    19    1
    34    18    42    1
    35    18    43    1
    36    19    20    3
    37    21    22    2
    38    22    44    1
    39    23    30   ar
    40    23    24   ar
    41    24    25   ar
    42    24    45    1
    43    25    26   ar
    44    25    46    1
    45    26    27   ar
    46    26    47    1
    47    27    28    1
    48    27    30   ar
    49    28    29    1
    50    29    48    1
    51    29    49    1
    52    29    50    1
    53    30    51    1
    54    31    52    1
@<TRIPOS>SUBSTRUCTURE
     1 ZINC000746432885        1 TEMP              0 ****  ****    0 ROOT


##########                                Name:    ZINC000464139057
##########                DOCK_Rotatable_Bonds:                   9
##########                         Heavy_Atoms:                  30
##########                    Molecular_Weight:              413.56
##########                DOCK_Rotatable_Bonds:                   9
##########                       Formal_Charge:         2.38419e-07
##########                     HBond_Acceptors:                   6
##########                        HBond_Donors:                   2
##########                         Heavy_Atoms:                  30
##########                          Grid_Score:          -34.503735
##########                     Grid_vdw_energy:          -34.378536
##########                      Grid_es_energy:           -0.125197
##########           Internal_energy_repulsive:           14.308686

@<TRIPOS>MOLECULE
ZINC000464139057
 65 67 1 0 0
SMALL
USER_CHARGES


@<TRIPOS>ATOM
      1 C1          0.8150    4.6736   48.5197 C.3     1  ZINC000464139057   -0.1800
      2 C2          1.4185    3.3060   48.1938 C.3     1  ZINC000464139057    0.0700
      3 H3          2.4938    3.4081   48.0474 H       1  ZINC000464139057    0.1200
      4 C4          1.1490    2.3383   49.3518 C.3     1  ZINC000464139057    0.0800
      5 N5         -0.2975    2.0738   49.4085 N.am    1  ZINC000464139057   -0.6100
      6 C6         -0.9804    2.1965   50.5639 C.2     1  ZINC000464139057    0.5600
      7 O7         -0.4018    2.5300   51.5794 O.2     1  ZINC000464139057   -0.5300
      8 C8         -2.4335    1.9253   50.5961 C.ar    1  ZINC000464139057   -0.1200
      9 C9         -3.3247    2.9259   50.9870 C.ar    1  ZINC000464139057   -0.0900
     10 C10        -4.6794    2.6665   51.0144 C.ar    1  ZINC000464139057   -0.1000
     11 C11        -5.1550    1.4177   50.6559 C.ar    1  ZINC000464139057   -0.0900
     12 C12        -6.6362    1.1413   50.6887 C.3     1  ZINC000464139057    0.1800
     13 N13        -7.1796    1.5455   51.9877 N.am    1  ZINC000464139057   -0.7400
     14 C14        -8.2587    0.9150   52.4923 C.2     1  ZINC000464139057    0.7000
     15 O15        -8.7801    0.0098   51.8702 O.2     1  ZINC000464139057   -0.5900
     16 N16        -8.7597    1.2878   53.6866 N.am    1  ZINC000464139057   -0.7500
     17 C17        -9.9337    0.6037   54.2343 C.3     1  ZINC000464139057    0.1400
     18 C18       -10.5398    1.4496   55.3559 C.3     1  ZINC000464139057   -0.0900
     19 C19        -9.5349    1.6035   56.4683 C.2     1  ZINC000464139057   -0.1200
     20 C20        -8.7495    2.6333   56.4891 C.2     1  ZINC000464139057   -0.1500
     21 C21        -7.7356    2.8002   57.6006 C.3     1  ZINC000464139057   -0.0900
     22 C22        -8.4780    3.1625   58.8887 C.3     1  ZINC000464139057   -0.1100
     23 C23        -8.9521    1.9112   59.6066 C.3     1  ZINC000464139057   -0.1200
     24 C24       -10.0195    1.1420   58.8485 C.3     1  ZINC000464139057   -0.1100
     25 C25        -9.4529    0.5569   57.5588 C.3     1  ZINC000464139057   -0.0800
     26 C26        -4.2770    0.4216   50.2671 C.ar    1  ZINC000464139057   -0.1000
     27 C27        -2.9204    0.6695   50.2302 C.ar    1  ZINC000464139057   -0.0700
     28 C28        -0.9763    1.6718   48.1663 C.3     1  ZINC000464139057    0.0700
     29 C29        -0.6032    2.6720   47.0661 C.3     1  ZINC000464139057    0.0700
     30 H30        -1.0405    3.6440   47.2941 H       1  ZINC000464139057    0.0700
     31 C31        -1.1365    2.1745   45.7210 C.3     1  ZINC000464139057   -0.1500
     32 O32         0.8208    2.7923   47.0010 O.3     1  ZINC000464139057   -0.3700
     33 H33        -0.2603    4.5708   48.6659 H       1  ZINC000464139057    0.0600
     34 H34         1.2699    5.0640   49.4301 H       1  ZINC000464139057    0.0700
     35 H35         1.0055    5.3607   47.6951 H       1  ZINC000464139057    0.0700
     36 H36         1.6866    1.4052   49.1831 H       1  ZINC000464139057    0.0800
     37 H37         1.4770    2.7873   50.2893 H       1  ZINC000464139057    0.1000
     38 H38        -2.9545    3.9008   51.2678 H       1  ZINC000464139057    0.1300
     39 H39        -5.3701    3.4398   51.3167 H       1  ZINC000464139057    0.1300
     40 H40        -7.1287    1.7061   49.8972 H       1  ZINC000464139057    0.0800
     41 H41        -6.8105    0.0761   50.5375 H       1  ZINC000464139057    0.0800
     42 H42        -6.7630    2.2668   52.4847 H       1  ZINC000464139057    0.4000
     43 H43        -8.3430    2.0092   54.1836 H       1  ZINC000464139057    0.4000
     44 H44       -10.6729    0.4626   53.4458 H       1  ZINC000464139057    0.0700
     45 H45        -9.6362   -0.3668   54.6315 H       1  ZINC000464139057    0.0700
     46 H46       -10.8045    2.4329   54.9669 H       1  ZINC000464139057    0.0700
     47 H47       -11.4338    0.9578   55.7394 H       1  ZINC000464139057    0.0800
     48 H48        -8.8183    3.3770   55.7088 H       1  ZINC000464139057    0.1100
     49 H49        -7.1912    1.8665   57.7423 H       1  ZINC000464139057    0.0700
     50 H50        -7.0385    3.5976   57.3433 H       1  ZINC000464139057    0.0700
     51 H51        -7.8087    3.7202   59.5439 H       1  ZINC000464139057    0.0600
     52 H52        -9.3394    3.7839   58.6438 H       1  ZINC000464139057    0.0600
     53 H53        -8.0964    1.2551   59.7656 H       1  ZINC000464139057    0.0600
     54 H54        -9.3532    2.1979   60.5788 H       1  ZINC000464139057    0.0600
     55 H55       -10.3930    0.3331   59.4765 H       1  ZINC000464139057    0.0600
     56 H56       -10.8417    1.8149   58.6047 H       1  ZINC000464139057    0.0600
     57 H57       -10.0330   -0.3192   57.2687 H       1  ZINC000464139057    0.0700
     58 H58        -8.4112    0.2747   57.7118 H       1  ZINC000464139057    0.0700
     59 H59        -4.6548   -0.5510   49.9881 H       1  ZINC000464139057    0.1300
     60 H60        -2.2361   -0.1088   49.9261 H       1  ZINC000464139057    0.1300
     61 H61        -0.6526    0.6716   47.8783 H       1  ZINC000464139057    0.0800
     62 H62        -2.0555    1.6794   48.3188 H       1  ZINC000464139057    0.1000
     63 H63        -2.2211    2.0798   45.7729 H       1  ZINC000464139057    0.0800
     64 H64        -0.8710    2.8861   44.9393 H       1  ZINC000464139057    0.0700
     65 H65        -0.6975    1.2034   45.4928 H       1  ZINC000464139057    0.0700
@<TRIPOS>BOND
     1     1     2    1
     2     1    33    1
     3     1    34    1
     4     1    35    1
     5     2     3    1
     6     2    32    1
     7     2     4    1
     8     4     5    1
     9     4    36    1
    10     4    37    1
    11     5     6   am
    12     5    28    1
    13     6     7    2
    14     6     8    1
    15     8    27   ar
    16     8     9   ar
    17     9    10   ar
    18     9    38    1
    19    10    11   ar
    20    10    39    1
    21    11    12    1
    22    11    26   ar
    23    12    13    1
    24    12    40    1
    25    12    41    1
    26    13    14   am
    27    13    42    1
    28    14    15    2
    29    14    16   am
    30    16    17    1
    31    16    43    1
    32    17    18    1
    33    17    44    1
    34    17    45    1
    35    18    19    1
    36    18    46    1
    37    18    47    1
    38    19    25    1
    39    19    20    2
    40    20    21    1
    41    20    48    1
    42    21    22    1
    43    21    49    1
    44    21    50    1
    45    22    23    1
    46    22    51    1
    47    22    52    1
    48    23    24    1
    49    23    53    1
    50    23    54    1
    51    24    25    1
    52    24    55    1
    53    24    56    1
    54    25    57    1
    55    25    58    1
    56    26    27   ar
    57    26    59    1
    58    27    60    1
    59    28    29    1
    60    28    61    1
    61    28    62    1
    62    29    30    1
    63    29    31    1
    64    29    32    1
    65    31    63    1
    66    31    64    1
    67    31    65    1
@<TRIPOS>SUBSTRUCTURE
     1 ZINC000464139057        1 TEMP              0 ****  ****    0 ROOT


##########                                Name:    ZINC000263872566
##########                DOCK_Rotatable_Bonds:                   9
##########                         Heavy_Atoms:                  26
##########                    Molecular_Weight:             362.469
##########                DOCK_Rotatable_Bonds:                   9
##########                       Formal_Charge:           0.0300001
##########                     HBond_Acceptors:                   6
##########                        HBond_Donors:                   2
##########                         Heavy_Atoms:                  26
##########                          Grid_Score:          -34.489655
##########                     Grid_vdw_energy:          -33.471760
##########                      Grid_es_energy:           -1.017893
##########           Internal_energy_repulsive:           22.809597

@<TRIPOS>MOLECULE
ZINC000263872566
 56 57 1 0 0
SMALL
USER_CHARGES


@<TRIPOS>ATOM
      1 C1         -8.2993    2.1650   59.9047 C.3     1  ZINC000263872566   -0.1800
      2 C2         -7.7234    1.1294   58.9369 C.3     1  ZINC000263872566    0.1400
      3 H3         -6.6365    1.2111   58.9219 H       1  ZINC000263872566    0.0700
      4 O4         -8.0965   -0.1819   59.3651 O.3     1  ZINC000263872566   -0.5600
      5 C5         -8.2651    1.3790   57.5530 C.ar    1  ZINC000263872566   -0.0800
      6 C6         -7.5583    2.1698   56.6664 C.ar    1  ZINC000263872566   -0.0900
      7 C7         -8.0551    2.3990   55.3970 C.ar    1  ZINC000263872566   -0.1000
      8 C8         -9.2585    1.8368   55.0139 C.ar    1  ZINC000263872566   -0.1100
      9 C9         -9.8004    2.0868   53.6301 C.3     1  ZINC000263872566    0.1800
     10 N10        -8.6883    2.3125   52.7036 N.am    1  ZINC000263872566   -0.7400
     11 C11        -8.1878    1.2854   51.9887 C.2     1  ZINC000263872566    0.7100
     12 O12        -8.6593    0.1715   52.1128 O.2     1  ZINC000263872566   -0.5900
     13 N13        -7.1646    1.4930   51.1363 N.am    1  ZINC000263872566   -0.6300
     14 C14        -6.5804    2.8320   50.9800 C.3     1  ZINC000263872566    0.1100
     15 C15        -5.0679    2.7394   51.2048 C.3     1  ZINC000263872566   -0.1200
     16 C16        -4.4803    1.6837   50.2656 C.3     1  ZINC000263872566   -0.0800
     17 C17        -2.9876    1.6139   50.4599 C.2     1  ZINC000263872566    0.4700
     18 O18        -2.2836    1.1766   49.5805 O.2     1  ZINC000263872566   -0.5000
     19 O19        -2.4399    2.0375   51.6098 O.3     1  ZINC000263872566   -0.3500
     20 C20        -1.3604    3.0035   51.5093 C.3     1  ZINC000263872566    0.1200
     21 C21        -1.6769    4.0084   50.3998 C.3     1  ZINC000263872566   -0.1800
     22 C22        -1.2123    3.7431   52.8404 C.3     1  ZINC000263872566   -0.1400
     23 C23        -0.0545    2.2767   51.1817 C.3     1  ZINC000263872566   -0.1800
     24 C24        -5.0995    0.3194   50.5777 C.3     1  ZINC000263872566   -0.1300
     25 C25        -6.6083    0.3833   50.3502 C.3     1  ZINC000263872566    0.1300
     26 C26        -9.9646    1.0448   55.9000 C.ar    1  ZINC000263872566   -0.1000
     27 C27        -9.4660    0.8127   57.1681 C.ar    1  ZINC000263872566   -0.1100
     28 H28        -9.3861    2.0833   59.9197 H       1  ZINC000263872566    0.0700
     29 H29        -7.9074    1.9844   60.9056 H       1  ZINC000263872566    0.0600
     30 H30        -8.0147    3.1652   59.5781 H       1  ZINC000263872566    0.0700
     31 H31        -7.7553   -0.4228   60.2374 H       1  ZINC000263872566    0.3800
     32 H32        -6.6182    2.6090   56.9657 H       1  ZINC000263872566    0.1300
     33 H33        -7.5033    3.0173   54.7046 H       1  ZINC000263872566    0.1300
     34 H34       -10.3757    1.2206   53.3032 H       1  ZINC000263872566    0.0800
     35 H35       -10.4446    2.9659   53.6455 H       1  ZINC000263872566    0.0800
     36 H36        -8.3121    3.2011   52.6046 H       1  ZINC000263872566    0.4000
     37 H37        -6.7784    3.2018   49.9739 H       1  ZINC000263872566    0.0800
     38 H38        -7.0181    3.5095   51.7133 H       1  ZINC000263872566    0.0800
     39 H39        -4.6094    3.7063   50.9977 H       1  ZINC000263872566    0.0900
     40 H40        -4.8705    2.4567   52.2389 H       1  ZINC000263872566    0.0800
     41 H41        -4.6998    1.9542   49.2327 H       1  ZINC000263872566    0.1100
     42 H42        -2.6072    4.5262   50.6333 H       1  ZINC000263872566    0.0600
     43 H43        -0.8665    4.7335   50.3244 H       1  ZINC000263872566    0.0700
     44 H44        -1.7824    3.4814   49.4515 H       1  ZINC000263872566    0.0800
     45 H45        -0.9868    3.0273   53.6307 H       1  ZINC000263872566    0.0700
     46 H46        -0.4020    4.4682   52.7649 H       1  ZINC000263872566    0.0800
     47 H47        -2.1427    4.2610   53.0738 H       1  ZINC000263872566    0.0700
     48 H48        -0.1600    1.7497   50.2334 H       1  ZINC000263872566    0.0800
     49 H49         0.7558    3.0017   51.1062 H       1  ZINC000263872566    0.0700
     50 H50         0.1710    1.5607   51.9720 H       1  ZINC000263872566    0.0600
     51 H51        -4.6634   -0.4361   49.9240 H       1  ZINC000263872566    0.0900
     52 H52        -4.9017    0.0595   51.6175 H       1  ZINC000263872566    0.0700
     53 H53        -7.0654   -0.5546   50.6654 H       1  ZINC000263872566    0.1000
     54 H54        -6.8116    0.5543   49.2930 H       1  ZINC000263872566    0.0700
     55 H55       -10.9046    0.6053   55.6006 H       1  ZINC000263872566    0.1300
     56 H56       -10.0176    0.1939   57.8604 H       1  ZINC000263872566    0.1300
@<TRIPOS>BOND
     1     1     2    1
     2     1    28    1
     3     1    29    1
     4     1    30    1
     5     2     3    1
     6     2     4    1
     7     2     5    1
     8     4    31    1
     9     5    27   ar
    10     5     6   ar
    11     6     7   ar
    12     6    32    1
    13     7     8   ar
    14     7    33    1
    15     8     9    1
    16     8    26   ar
    17     9    10    1
    18     9    34    1
    19     9    35    1
    20    10    11   am
    21    10    36    1
    22    11    12    2
    23    11    13   am
    24    13    25    1
    25    13    14    1
    26    14    15    1
    27    14    37    1
    28    14    38    1
    29    15    16    1
    30    15    39    1
    31    15    40    1
    32    16    17    1
    33    16    24    1
    34    16    41    1
    35    17    18    2
    36    17    19    1
    37    19    20    1
    38    20    21    1
    39    20    22    1
    40    20    23    1
    41    21    42    1
    42    21    43    1
    43    21    44    1
    44    22    45    1
    45    22    46    1
    46    22    47    1
    47    23    48    1
    48    23    49    1
    49    23    50    1
    50    24    25    1
    51    24    51    1
    52    24    52    1
    53    25    53    1
    54    25    54    1
    55    26    27   ar
    56    26    55    1
    57    27    56    1
@<TRIPOS>SUBSTRUCTURE
     1 ZINC000263872566        1 TEMP              0 ****  ****    0 ROOT


##########                                Name:    ZINC001004075025
##########                DOCK_Rotatable_Bonds:                   8
##########                         Heavy_Atoms:                  25
##########                    Molecular_Weight:              349.43
##########                DOCK_Rotatable_Bonds:                   8
##########                       Formal_Charge:         -0.00999999
##########                     HBond_Acceptors:                   7
##########                        HBond_Donors:                   1
##########                         Heavy_Atoms:                  25
##########                          Grid_Score:          -34.407730
##########                     Grid_vdw_energy:          -31.192238
##########                      Grid_es_energy:           -3.215491
##########           Internal_energy_repulsive:           10.065816

@<TRIPOS>MOLECULE
ZINC001004075025
 52 54 1 0 0
SMALL
USER_CHARGES


@<TRIPOS>ATOM
      1 C1         -0.1732    0.6968   62.0280 C.3     1  ZINC001004075025   -0.1500
      2 C2          1.1877    1.2666   61.6225 C.3     1  ZINC001004075025   -0.1200
      3 C3          1.0441    2.0487   60.3155 C.3     1  ZINC001004075025    0.0800
      4 H4          1.7821    2.8497   60.2715 H       1  ZINC001004075025    0.0700
      5 C5          1.2067    1.1005   59.1008 C.3     1  ZINC001004075025   -0.1500
      6 C6          0.4193    1.8788   58.0117 C.3     1  ZINC001004075025   -0.1400
      7 C7         -0.7115    2.5362   58.8319 C.3     1  ZINC001004075025    0.0700
      8 H8         -1.6213    1.9415   58.7503 H       1  ZINC001004075025    0.1100
      9 C9         -0.9660    3.9321   58.3245 C.2     1  ZINC001004075025    0.5300
     10 O10        -0.5277    4.8869   58.9303 O.2     1  ZINC001004075025   -0.5200
     11 N11        -1.6809    4.1196   57.1975 N.am    1  ZINC001004075025   -0.6500
     12 C12        -2.3629    3.2576   56.2204 C.3     1  ZINC001004075025    0.1100
     13 C13        -2.1384    4.3581   55.1741 C.3     1  ZINC001004075025   -0.1400
     14 C14        -3.3264    4.5843   54.2369 C.3     1  ZINC001004075025    0.1300
     15 N15        -3.3913    3.4954   53.2591 N.am    1  ZINC001004075025   -0.7200
     16 C16        -2.9441    3.6903   52.0027 C.2     1  ZINC001004075025    0.6000
     17 O17        -2.4854    4.7697   51.6812 O.2     1  ZINC001004075025   -0.5300
     18 C18        -3.0109    2.5952   51.0183 C.2     1  ZINC001004075025   -0.2700
     19 C19        -4.1031    1.8581   50.6305 C.2     1  ZINC001004075025    0.0700
     20 C20        -5.5159    2.0028   51.1345 C.3     1  ZINC001004075025   -0.0300
     21 C21        -6.1597    3.2373   50.5000 C.3     1  ZINC001004075025   -0.1500
     22 C22        -6.3216    0.7576   50.7588 C.3     1  ZINC001004075025   -0.1500
     23 O23        -3.6642    0.9879   49.7182 O.3     1  ZINC001004075025    0.1000
     24 N24        -2.4820    1.0869   49.4982 N.2     1  ZINC001004075025   -0.3500
     25 C25        -1.9258    2.0262   50.2043 C.2     1  ZINC001004075025    0.0200
     26 C26        -2.1280    5.2765   56.4071 C.3     1  ZINC001004075025    0.1100
     27 O27        -0.2828    2.5864   60.1992 O.3     1  ZINC001004075025   -0.3400
     28 H28        -0.0710    0.1395   62.9591 H       1  ZINC001004075025    0.0600
     29 H29        -0.8815    1.5132   62.1689 H       1  ZINC001004075025    0.0500
     30 H30        -0.5367    0.0318   61.2445 H       1  ZINC001004075025    0.0600
     31 H31         1.5511    1.9316   62.4060 H       1  ZINC001004075025    0.0800
     32 H32         1.8959    0.4501   61.4815 H       1  ZINC001004075025    0.0700
     33 H33         2.2556    0.9919   58.8249 H       1  ZINC001004075025    0.0900
     34 H34         0.7513    0.1298   59.2965 H       1  ZINC001004075025    0.0900
     35 H35         1.0491    2.6353   57.5437 H       1  ZINC001004075025    0.0800
     36 H36         0.0112    1.1966   57.2660 H       1  ZINC001004075025    0.0900
     37 H37        -1.8231    2.3358   56.0035 H       1  ZINC001004075025    0.0900
     38 H38        -3.4143    3.0865   56.4517 H       1  ZINC001004075025    0.0900
     39 H39        -1.1843    4.2899   54.6515 H       1  ZINC001004075025    0.1100
     40 H40        -4.2485    4.6063   54.8179 H       1  ZINC001004075025    0.0800
     41 H41        -3.2026    5.5336   53.7159 H       1  ZINC001004075025    0.0800
     42 H42        -3.7561    2.6340   53.5159 H       1  ZINC001004075025    0.4000
     43 H43        -5.5053    2.1153   52.2186 H       1  ZINC001004075025    0.1300
     44 H44        -6.1705    3.1249   49.4159 H       1  ZINC001004075025    0.0600
     45 H45        -7.1816    3.3421   50.8646 H       1  ZINC001004075025    0.0700
     46 H46        -5.5858    4.1245   50.7677 H       1  ZINC001004075025    0.0600
     47 H47        -6.3323    0.6451   49.6747 H       1  ZINC001004075025    0.0600
     48 H48        -5.8629   -0.1219   51.2108 H       1  ZINC001004075025    0.0600
     49 H49        -7.3435    0.8623   51.1233 H       1  ZINC001004075025    0.0700
     50 H50        -0.8869    2.3214   50.1993 H       1  ZINC001004075025    0.2000
     51 H51        -3.1169    5.6406   56.6855 H       1  ZINC001004075025    0.0900
     52 H52        -1.3859    6.0728   56.3490 H       1  ZINC001004075025    0.0800
@<TRIPOS>BOND
     1     1     2    1
     2     1    28    1
     3     1    29    1
     4     1    30    1
     5     2     3    1
     6     2    31    1
     7     2    32    1
     8     3     4    1
     9     3    27    1
    10     3     5    1
    11     5     6    1
    12     5    33    1
    13     5    34    1
    14     6     7    1
    15     6    35    1
    16     6    36    1
    17     7     8    1
    18     7     9    1
    19     7    27    1
    20     9    10    2
    21     9    11   am
    22    11    26    1
    23    11    12    1
    24    12    13    1
    25    12    37    1
    26    12    38    1
    27    13    14    1
    28    13    26    1
    29    13    39    1
    30    14    15    1
    31    14    40    1
    32    14    41    1
    33    15    16   am
    34    15    42    1
    35    16    17    2
    36    16    18    1
    37    18    25    1
    38    18    19    2
    39    19    20    1
    40    19    23    1
    41    20    21    1
    42    20    22    1
    43    20    43    1
    44    21    44    1
    45    21    45    1
    46    21    46    1
    47    22    47    1
    48    22    48    1
    49    22    49    1
    50    23    24    1
    51    24    25    2
    52    25    50    1
    53    26    51    1
    54    26    52    1
@<TRIPOS>SUBSTRUCTURE
     1 ZINC001004075025        1 TEMP              0 ****  ****    0 ROOT


##########                                Name:    ZINC001291841503
##########                DOCK_Rotatable_Bonds:                   7
##########                         Heavy_Atoms:                  28
##########                    Molecular_Weight:             397.544
##########                DOCK_Rotatable_Bonds:                   7
##########                       Formal_Charge:         -0.00999964
##########                     HBond_Acceptors:                   7
##########                        HBond_Donors:                   0
##########                         Heavy_Atoms:                  28
##########                          Grid_Score:          -34.400402
##########                     Grid_vdw_energy:          -33.586979
##########                      Grid_es_energy:           -0.813423
##########           Internal_energy_repulsive:           24.021326

@<TRIPOS>MOLECULE
ZINC001291841503
 55 58 1 0 0
SMALL
USER_CHARGES


@<TRIPOS>ATOM
      1 C1         -7.7393    1.6255   52.6422 C.3     1  ZINC001291841503   -0.1500
      2 C2         -6.6413    1.3338   51.6172 C.3     1  ZINC001291841503   -0.1100
      3 C3         -5.6566    2.5040   51.5778 C.3     1  ZINC001291841503    0.0500
      4 H4         -5.4287    2.8216   52.5954 H       1  ZINC001291841503    0.0900
      5 C5         -4.3874    2.0695   50.8912 C.2     1  ZINC001291841503    0.2000
      6 N6         -4.2105    0.9656   50.2219 N.2     1  ZINC001291841503   -0.2700
      7 N7         -3.0089    0.9127   49.7689 N.2     1  ZINC001291841503   -0.3100
      8 C8         -2.3493    1.9888   50.1276 C.2     1  ZINC001291841503    0.3600
      9 N9         -1.0298    2.2855   49.8251 N.3     1  ZINC001291841503   -0.4500
     10 C10        -0.1383    1.9053   50.9290 C.3     1  ZINC001291841503    0.0200
     11 C11        -0.6194    1.6403   48.5709 C.3     1  ZINC001291841503    0.0700
     12 H12        -0.8096    0.5677   48.6080 H       1  ZINC001291841503    0.0800
     13 C13        -1.3381    2.2873   47.3556 C.3     1  ZINC001291841503   -0.1400
     14 C14        -0.3052    2.0271   46.2303 C.3     1  ZINC001291841503    0.0500
     15 O15         0.9785    2.1741   46.8581 O.3     1  ZINC001291841503   -0.3800
     16 C16         0.8675    1.9245   48.2677 C.3     1  ZINC001291841503    0.0600
     17 N17        -3.2098    2.7633   50.8499 N.pl3   1  ZINC001291841503   -0.4700
     18 C18        -2.9276    4.0639   51.4624 C.3     1  ZINC001291841503    0.1900
     19 C19        -2.7976    3.8988   52.9547 C.2     1  ZINC001291841503   -0.2700
     20 C20        -3.7650    4.0980   53.8550 C.2     1  ZINC001291841503    0.0800
     21 N21        -3.4011    3.8871   55.1039 N.2     1  ZINC001291841503   -0.4800
     22 C22        -2.1806    3.5211   55.3072 C.2     1  ZINC001291841503    0.0500
     23 C23        -1.5801    3.2338   56.6592 C.3     1  ZINC001291841503   -0.0800
     24 S24        -1.3454    3.4020   53.8201 S.3     1  ZINC001291841503    0.1800
     25 C25        -6.2706    3.6520   50.8189 C.ar    1  ZINC001291841503   -0.0900
     26 C26        -6.5857    4.8260   51.4772 C.ar    1  ZINC001291841503   -0.0900
     27 C27        -7.1489    5.8791   50.7811 C.ar    1  ZINC001291841503   -0.1200
     28 C28        -7.3966    5.7584   49.4266 C.ar    1  ZINC001291841503   -0.1200
     29 C29        -7.0807    4.5848   48.7679 C.ar    1  ZINC001291841503   -0.1200
     30 C30        -6.5135    3.5332   49.4633 C.ar    1  ZINC001291841503   -0.1100
     31 H31        -7.2912    1.7567   53.6272 H       1  ZINC001291841503    0.0500
     32 H32        -8.2678    2.5358   52.3594 H       1  ZINC001291841503    0.0500
     33 H33        -8.4409    0.7918   52.6703 H       1  ZINC001291841503    0.0600
     34 H34        -6.1128    0.4236   51.9001 H       1  ZINC001291841503    0.0800
     35 H35        -7.0894    1.2026   50.6323 H       1  ZINC001291841503    0.0800
     36 H36        -0.1519    0.8220   51.0504 H       1  ZINC001291841503    0.0500
     37 H37         0.8769    2.2331   50.7056 H       1  ZINC001291841503    0.0900
     38 H38        -0.4784    2.3783   51.8502 H       1  ZINC001291841503    0.0700
     39 H39        -2.2828    1.7860   47.1452 H       1  ZINC001291841503    0.0900
     40 H40        -1.4886    3.3556   47.5113 H       1  ZINC001291841503    0.0800
     41 H41        -0.4206    1.0170   45.8371 H       1  ZINC001291841503    0.0700
     42 H42        -0.4223    2.7602   45.4323 H       1  ZINC001291841503    0.0900
     43 H43         1.1947    2.8019   48.8256 H       1  ZINC001291841503    0.0800
     44 H44         1.4775    1.0631   48.5400 H       1  ZINC001291841503    0.0700
     45 H45        -1.9966    4.4614   51.0584 H       1  ZINC001291841503    0.1100
     46 H46        -3.7428    4.7534   51.2428 H       1  ZINC001291841503    0.1100
     47 H47        -4.7632    4.4064   53.5814 H       1  ZINC001291841503    0.1700
     48 H48        -1.7169    2.1798   56.9010 H       1  ZINC001291841503    0.0900
     49 H49        -0.5155    3.4672   56.6410 H       1  ZINC001291841503    0.0800
     50 H50        -2.0735    3.8467   57.4136 H       1  ZINC001291841503    0.0900
     51 H51        -6.3921    4.9202   52.5356 H       1  ZINC001291841503    0.1300
     52 H52        -7.3957    6.7960   51.2957 H       1  ZINC001291841503    0.1200
     53 H53        -7.8373    6.5809   48.8828 H       1  ZINC001291841503    0.1200
     54 H54        -7.2745    4.4905   47.7097 H       1  ZINC001291841503    0.1200
     55 H55        -6.2666    2.6163   48.9487 H       1  ZINC001291841503    0.1200
@<TRIPOS>BOND
     1     1     2    1
     2     1    31    1
     3     1    32    1
     4     1    33    1
     5     2     3    1
     6     2    34    1
     7     2    35    1
     8     3     4    1
     9     3     5    1
    10     3    25    1
    11     5    17    1
    12     5     6    2
    13     6     7    1
    14     7     8    2
    15     8     9    1
    16     8    17    1
    17     9    10    1
    18     9    11    1
    19    10    36    1
    20    10    37    1
    21    10    38    1
    22    11    12    1
    23    11    16    1
    24    11    13    1
    25    13    14    1
    26    13    39    1
    27    13    40    1
    28    14    15    1
    29    14    41    1
    30    14    42    1
    31    15    16    1
    32    16    43    1
    33    16    44    1
    34    17    18    1
    35    18    19    1
    36    18    45    1
    37    18    46    1
    38    19    24    1
    39    19    20    2
    40    20    21    1
    41    20    47    1
    42    21    22    2
    43    22    23    1
    44    22    24    1
    45    23    48    1
    46    23    49    1
    47    23    50    1
    48    25    30   ar
    49    25    26   ar
    50    26    27   ar
    51    26    51    1
    52    27    28   ar
    53    27    52    1
    54    28    29   ar
    55    28    53    1
    56    29    30   ar
    57    29    54    1
    58    30    55    1
@<TRIPOS>SUBSTRUCTURE
     1 ZINC001291841503        1 TEMP              0 ****  ****    0 ROOT


##########                                Name:    ZINC000762020937
##########                DOCK_Rotatable_Bonds:                  10
##########                         Heavy_Atoms:                  28
##########                    Molecular_Weight:             391.467
##########                DOCK_Rotatable_Bonds:                  10
##########                       Formal_Charge:         -1.8999e-07
##########                     HBond_Acceptors:                   8
##########                        HBond_Donors:                   1
##########                         Heavy_Atoms:                  28
##########                          Grid_Score:          -34.381977
##########                     Grid_vdw_energy:          -33.802055
##########                      Grid_es_energy:           -0.579923
##########           Internal_energy_repulsive:           39.512066

@<TRIPOS>MOLECULE
ZINC000762020937
 57 58 1 0 0
SMALL
USER_CHARGES


@<TRIPOS>ATOM
      1 C1         -1.3821    0.9830   48.9402 C.3     1  ZINC000762020937    0.0200
      2 O2         -2.2808    0.6141   49.9882 O.3     1  ZINC000762020937   -0.3000
      3 C3         -2.7665    1.6176   50.7668 C.ar    1  ZINC000762020937    0.1100
      4 C4         -1.9106    2.3403   51.5817 C.ar    1  ZINC000762020937   -0.1700
      5 C5         -2.4061    3.3608   52.3725 C.ar    1  ZINC000762020937   -0.1000
      6 C6         -3.7547    3.6620   52.3525 C.ar    1  ZINC000762020937   -0.1000
      7 C7         -4.2895    4.7749   53.2167 C.3     1  ZINC000762020937    0.0200
      8 C8         -4.9700    4.1885   54.4266 C.2     1  ZINC000762020937    0.1900
      9 N9         -6.2095    3.7664   54.4977 N.2     1  ZINC000762020937   -0.4700
     10 C10        -6.3721    3.3316   55.7599 C.2     1  ZINC000762020937    0.1600
     11 C11        -7.6310    2.7467   56.3465 C.3     1  ZINC000762020937    0.2600
     12 H12        -7.9309    1.8740   55.7663 H       1  ZINC000762020937    0.1200
     13 N13        -7.3837    2.3487   57.7346 N.am    1  ZINC000762020937   -0.7100
     14 C14        -7.9333    1.2175   58.2194 C.2     1  ZINC000762020937    0.6600
     15 O15        -8.6326    0.5271   57.5048 O.2     1  ZINC000762020937   -0.5600
     16 O16        -7.7074    0.8526   59.4955 O.3     1  ZINC000762020937   -0.3600
     17 C17        -8.6206   -0.1158   60.0757 C.3     1  ZINC000762020937    0.1400
     18 C18        -8.4123   -1.4768   59.4086 C.3     1  ZINC000762020937   -0.1800
     19 C19        -8.3497   -0.2367   61.5767 C.3     1  ZINC000762020937   -0.1400
     20 C20       -10.0623    0.3458   59.8533 C.3     1  ZINC000762020937   -0.1800
     21 C21        -8.7462    3.7932   56.3070 C.3     1  ZINC000762020937   -0.1000
     22 C22        -9.6157    3.5655   55.0689 C.3     1  ZINC000762020937   -0.1400
     23 C23        -9.6078    3.6684   57.5652 C.3     1  ZINC000762020937   -0.1400
     24 N24        -5.2442    3.5081   56.3807 N.2     1  ZINC000762020937   -0.3700
     25 O25        -4.4238    3.9940   55.6308 O.3     1  ZINC000762020937    0.0900
     26 C26        -4.6146    2.9447   51.5410 C.ar    1  ZINC000762020937   -0.1500
     27 C27        -4.1240    1.9247   50.7424 C.ar    1  ZINC000762020937    0.1000
     28 O28        -4.9681    1.2183   49.9439 O.3     1  ZINC000762020937   -0.3100
     29 C29        -5.9435    0.4006   50.5935 C.3     1  ZINC000762020937    0.0200
     30 H30        -1.8831    1.6680   48.2562 H       1  ZINC000762020937    0.0600
     31 H31        -0.5066    1.4720   49.3676 H       1  ZINC000762020937    0.0600
     32 H32        -1.0709    0.0904   48.3974 H       1  ZINC000762020937    0.1000
     33 H33        -0.8563    2.1066   51.5996 H       1  ZINC000762020937    0.1400
     34 H34        -1.7376    3.9235   53.0073 H       1  ZINC000762020937    0.1300
     35 H35        -3.4665    5.4139   53.5366 H       1  ZINC000762020937    0.1200
     36 H36        -5.0072    5.3648   52.6464 H       1  ZINC000762020937    0.1200
     37 H37        -6.8245    2.8992   58.3048 H       1  ZINC000762020937    0.4100
     38 H38        -7.3852   -1.8057   59.5670 H       1  ZINC000762020937    0.0600
     39 H39        -9.0978   -2.2037   59.8441 H       1  ZINC000762020937    0.0700
     40 H40        -8.6053   -1.3906   58.3393 H       1  ZINC000762020937    0.0900
     41 H41        -8.4982    0.7329   62.0520 H       1  ZINC000762020937    0.0700
     42 H42        -9.0352   -0.9637   62.0122 H       1  ZINC000762020937    0.0800
     43 H43        -7.3227   -0.5656   61.7351 H       1  ZINC000762020937    0.0700
     44 H44       -10.2553    0.4321   58.7840 H       1  ZINC000762020937    0.0900
     45 H45       -10.7479   -0.3811   60.2888 H       1  ZINC000762020937    0.0700
     46 H46       -10.2108    1.3154   60.3286 H       1  ZINC000762020937    0.0600
     47 H47        -8.3076    4.7903   56.2646 H       1  ZINC000762020937    0.0800
     48 H48       -10.0544    2.5686   55.1113 H       1  ZINC000762020937    0.0600
     49 H49       -10.4103    4.3112   55.0407 H       1  ZINC000762020937    0.0600
     50 H50        -9.0020    3.6546   54.1726 H       1  ZINC000762020937    0.0500
     51 H51        -8.9883    3.8306   58.4473 H       1  ZINC000762020937    0.0500
     52 H52       -10.4023    4.4140   57.5371 H       1  ZINC000762020937    0.0600
     53 H53       -10.0463    2.6714   57.6077 H       1  ZINC000762020937    0.0700
     54 H54        -5.6680    3.1821   51.5273 H       1  ZINC000762020937    0.1400
     55 H55        -6.5837    1.0246   51.2171 H       1  ZINC000762020937    0.0600
     56 H56        -6.5501   -0.1068   49.8434 H       1  ZINC000762020937    0.1000
     57 H57        -5.4407   -0.3399   51.2156 H       1  ZINC000762020937    0.0600
@<TRIPOS>BOND
     1     1     2    1
     2     1    30    1
     3     1    31    1
     4     1    32    1
     5     2     3    1
     6     3    27   ar
     7     3     4   ar
     8     4     5   ar
     9     4    33    1
    10     5     6   ar
    11     5    34    1
    12     6     7    1
    13     6    26   ar
    14     7     8    1
    15     7    35    1
    16     7    36    1
    17     8    25    1
    18     8     9    2
    19     9    10    1
    20    10    11    1
    21    10    24    2
    22    11    12    1
    23    11    13    1
    24    11    21    1
    25    13    14   am
    26    13    37    1
    27    14    15    2
    28    14    16    1
    29    16    17    1
    30    17    18    1
    31    17    19    1
    32    17    20    1
    33    18    38    1
    34    18    39    1
    35    18    40    1
    36    19    41    1
    37    19    42    1
    38    19    43    1
    39    20    44    1
    40    20    45    1
    41    20    46    1
    42    21    22    1
    43    21    23    1
    44    21    47    1
    45    22    48    1
    46    22    49    1
    47    22    50    1
    48    23    51    1
    49    23    52    1
    50    23    53    1
    51    24    25    1
    52    26    27   ar
    53    26    54    1
    54    27    28    1
    55    28    29    1
    56    29    55    1
    57    29    56    1
    58    29    57    1
@<TRIPOS>SUBSTRUCTURE
     1 ZINC000762020937        1 TEMP              0 ****  ****    0 ROOT


##########                                Name:    ZINC000498646479
##########                DOCK_Rotatable_Bonds:                   7
##########                         Heavy_Atoms:                  29
##########                    Molecular_Weight:              407.58
##########                DOCK_Rotatable_Bonds:                   7
##########                       Formal_Charge:          -0.0199997
##########                     HBond_Acceptors:                   5
##########                        HBond_Donors:                   0
##########                         Heavy_Atoms:                  29
##########                          Grid_Score:          -34.357960
##########                     Grid_vdw_energy:          -33.767513
##########                      Grid_es_energy:           -0.590446
##########           Internal_energy_repulsive:           24.749462

@<TRIPOS>MOLECULE
ZINC000498646479
 58 61 1 0 0
SMALL
USER_CHARGES


@<TRIPOS>ATOM
      1 C1         -0.1952    1.4202   62.1635 C.3     1  ZINC000498646479   -0.1500
      2 C2          0.4555    0.5923   61.0535 C.3     1  ZINC000498646479   -0.0600
      3 C3          0.6633    1.4579   59.8375 C.2     1  ZINC000498646479   -0.1700
      4 C4          1.6157    1.2800   58.9207 C.2     1  ZINC000498646479   -0.1400
      5 C5          1.6112    2.2024   57.8885 C.2     1  ZINC000498646479   -0.1300
      6 C6          0.6551    3.1293   57.9672 C.2     1  ZINC000498646479   -0.1900
      7 C7          0.4377    4.2396   56.9718 C.3     1  ZINC000498646479    0.1300
      8 N8         -0.9983    4.5317   56.8698 N.3     1  ZINC000498646479   -0.5300
      9 C9         -1.7281    3.3918   56.2986 C.3     1  ZINC000498646479    0.0400
     10 C10        -3.2343    3.6631   56.3765 C.3     1  ZINC000498646479    0.1200
     11 N11        -3.5090    4.9599   55.7391 N.am    1  ZINC000498646479   -0.6100
     12 C12        -4.4601    5.0772   54.7915 C.2     1  ZINC000498646479    0.5200
     13 O13        -4.6734    6.1543   54.2765 O.2     1  ZINC000498646479   -0.5400
     14 C14        -5.2586    3.8700   54.3719 C.3     1  ZINC000498646479   -0.1000
     15 H15        -4.5889    3.0211   54.2347 H       1  ZINC000498646479    0.0900
     16 C16        -6.2879    3.5380   55.4541 C.3     1  ZINC000498646479   -0.1500
     17 C17        -5.9803    4.1681   53.0561 C.3     1  ZINC000498646479   -0.0600
     18 C18        -6.2719    2.8751   52.3390 C.ar    1  ZINC000498646479   -0.1200
     19 C19        -5.2483    2.1780   51.6721 C.ar    1  ZINC000498646479   -0.0200
     20 C20        -3.9253    2.6419   51.6404 C.ar    1  ZINC000498646479   -0.1200
     21 C21        -2.9780    1.9215   50.9777 C.ar    1  ZINC000498646479   -0.1000
     22 C22        -3.3035    0.7309   50.3302 C.ar    1  ZINC000498646479   -0.1200
     23 C23        -4.5776    0.2505   50.3402 C.ar    1  ZINC000498646479   -0.0900
     24 C24        -5.5810    0.9654   51.0134 C.ar    1  ZINC000498646479   -0.1100
     25 C25        -6.9115    0.5197   51.0585 C.ar    1  ZINC000498646479    0.1400
     26 N26        -7.8151    1.2223   51.7011 N.ar    1  ZINC000498646479   -0.4800
     27 C27        -7.5307    2.3550   52.3287 C.ar    1  ZINC000498646479    0.0800
     28 C28        -2.7185    6.1252   56.1636 C.3     1  ZINC000498646479    0.1100
     29 C29        -1.2326    5.7570   56.0943 C.3     1  ZINC000498646479    0.0400
     30 S30        -0.3178    2.8524   59.4060 S.3     1  ZINC000498646479    0.1300
     31 H31        -0.3455    0.7942   63.0432 H       1  ZINC000498646479    0.0600
     32 H32         0.4537    2.2576   62.4202 H       1  ZINC000498646479    0.0600
     33 H33        -1.1573    1.7985   61.8183 H       1  ZINC000498646479    0.0600
     34 H34         1.4176    0.2140   61.3988 H       1  ZINC000498646479    0.0800
     35 H35        -0.1934   -0.2451   60.7970 H       1  ZINC000498646479    0.0700
     36 H36         2.3359    0.4775   58.9794 H       1  ZINC000498646479    0.1400
     37 H37         2.3278    2.1740   57.0810 H       1  ZINC000498646479    0.1300
     38 H38         0.9676    5.1329   57.3025 H       1  ZINC000498646479    0.0900
     39 H39         0.8162    3.9328   55.9967 H       1  ZINC000498646479    0.0500
     40 H40        -1.4360    3.2579   55.2572 H       1  ZINC000498646479    0.0400
     41 H41        -1.4915    2.4892   56.8622 H       1  ZINC000498646479    0.1000
     42 H42        -3.7757    2.8755   55.8525 H       1  ZINC000498646479    0.1000
     43 H43        -3.5472    3.6945   57.4201 H       1  ZINC000498646479    0.0800
     44 H44        -6.8080    2.6170   55.1906 H       1  ZINC000498646479    0.0700
     45 H45        -5.7807    3.4081   56.4102 H       1  ZINC000498646479    0.0600
     46 H46        -7.0082    4.3522   55.5326 H       1  ZINC000498646479    0.0700
     47 H47        -6.9159    4.6871   53.2643 H       1  ZINC000498646479    0.0900
     48 H48        -5.3478    4.7966   52.4291 H       1  ZINC000498646479    0.0800
     49 H49        -3.6595    3.5632   52.1373 H       1  ZINC000498646479    0.1400
     50 H50        -1.9591    2.2785   50.9533 H       1  ZINC000498646479    0.1300
     51 H51        -2.5325    0.1804   49.8117 H       1  ZINC000498646479    0.1300
     52 H52        -4.8146   -0.6735   49.8339 H       1  ZINC000498646479    0.1300
     53 H53        -7.1911   -0.3994   50.5650 H       1  ZINC000498646479    0.1600
     54 H54        -8.3214    2.8847   52.8391 H       1  ZINC000498646479    0.1500
     55 H55        -2.9190    6.9654   55.4989 H       1  ZINC000498646479    0.0900
     56 H56        -2.9819    6.3933   57.1868 H       1  ZINC000498646479    0.0800
     57 H57        -0.6367    6.5698   56.5095 H       1  ZINC000498646479    0.0900
     58 H58        -0.9475    5.5901   55.0555 H       1  ZINC000498646479    0.0400
@<TRIPOS>BOND
     1     1     2    1
     2     1    31    1
     3     1    32    1
     4     1    33    1
     5     2     3    1
     6     2    34    1
     7     2    35    1
     8     3    30    1
     9     3     4    2
    10     4     5    1
    11     4    36    1
    12     5     6    2
    13     5    37    1
    14     6     7    1
    15     6    30    1
    16     7     8    1
    17     7    38    1
    18     7    39    1
    19     8    29    1
    20     8     9    1
    21     9    10    1
    22     9    40    1
    23     9    41    1
    24    10    11    1
    25    10    42    1
    26    10    43    1
    27    11    12   am
    28    11    28    1
    29    12    13    2
    30    12    14    1
    31    14    15    1
    32    14    16    1
    33    14    17    1
    34    16    44    1
    35    16    45    1
    36    16    46    1
    37    17    18    1
    38    17    47    1
    39    17    48    1
    40    18    27   ar
    41    18    19   ar
    42    19    24   ar
    43    19    20   ar
    44    20    21   ar
    45    20    49    1
    46    21    22   ar
    47    21    50    1
    48    22    23   ar
    49    22    51    1
    50    23    24   ar
    51    23    52    1
    52    24    25   ar
    53    25    26   ar
    54    25    53    1
    55    26    27   ar
    56    27    54    1
    57    28    29    1
    58    28    55    1
    59    28    56    1
    60    29    57    1
    61    29    58    1
@<TRIPOS>SUBSTRUCTURE
     1 ZINC000498646479        1 TEMP              0 ****  ****    0 ROOT


##########                                Name:    ZINC000008416770
##########                DOCK_Rotatable_Bonds:                  13
##########                         Heavy_Atoms:                  30
##########                    Molecular_Weight:             412.442
##########                DOCK_Rotatable_Bonds:                  13
##########                       Formal_Charge:          -0.0199998
##########                     HBond_Acceptors:                   8
##########                        HBond_Donors:                   2
##########                         Heavy_Atoms:                  30
##########                          Grid_Score:          -34.356499
##########                     Grid_vdw_energy:          -33.458061
##########                      Grid_es_energy:           -0.898437
##########           Internal_energy_repulsive:            9.863626

@<TRIPOS>MOLECULE
ZINC000008416770
 54 55 1 0 0
SMALL
USER_CHARGES


@<TRIPOS>ATOM
      1 C1        -13.9638   -2.0807   56.7194 C.3     1  ZINC000008416770   -0.1500
      2 C2        -13.0910   -1.0239   56.0394 C.3     1  ZINC000008416770    0.0600
      3 O3        -13.7954    0.2457   56.0197 O.3     1  ZINC000008416770   -0.3500
      4 C4        -13.1436    1.2986   55.4882 C.2     1  ZINC000008416770    0.5100
      5 O5        -13.5172    2.4293   55.7295 O.2     1  ZINC000008416770   -0.5100
      6 C6        -11.9767    1.0785   54.6137 C.ar    1  ZINC000008416770   -0.1500
      7 C7        -10.7043    1.4830   55.0283 C.ar    1  ZINC000008416770   -0.0400
      8 C8         -9.6173    1.2755   54.2096 C.ar    1  ZINC000008416770   -0.1400
      9 C9         -9.7839    0.6640   52.9709 C.ar    1  ZINC000008416770    0.1800
     10 N10        -8.6807    0.4555   52.1444 N.am    1  ZINC000008416770   -0.6700
     11 C11        -7.9612    1.5062   51.7031 C.2     1  ZINC000008416770    0.5200
     12 O12        -8.2733    2.6330   52.0250 O.2     1  ZINC000008416770   -0.5100
     13 C13        -6.7687    1.2808   50.8096 C.3     1  ZINC000008416770   -0.1300
     14 C14        -5.4960    1.7179   51.5379 C.3     1  ZINC000008416770   -0.1000
     15 C15        -4.3177    1.5979   50.6061 C.2     1  ZINC000008416770    0.4700
     16 O16        -4.2092    0.6301   49.8908 O.2     1  ZINC000008416770   -0.5100
     17 O17        -3.3887    2.5662   50.5707 O.3     1  ZINC000008416770   -0.3300
     18 C18        -2.0123    2.1682   50.8062 C.3     1  ZINC000008416770    0.0500
     19 C19        -1.4087    1.6629   49.5211 C.2     1  ZINC000008416770    0.5100
     20 O20        -1.3383    0.4703   49.3119 O.2     1  ZINC000008416770   -0.4900
     21 N21        -0.9471    2.5363   48.6044 N.am    1  ZINC000008416770   -0.6700
     22 C22        -0.3866    2.0672   47.4112 C.ar    1  ZINC000008416770    0.1400
     23 C23        -1.2058    1.7443   46.3373 C.ar    1  ZINC000008416770   -0.1400
     24 C24        -0.6494    1.2815   45.1609 C.ar    1  ZINC000008416770   -0.1000
     25 C25         0.7217    1.1393   45.0519 C.ar    1  ZINC000008416770   -0.1000
     26 C26         1.3253    0.6337   43.7669 C.3     1  ZINC000008416770   -0.1200
     27 C27         1.5401    1.4604   46.1192 C.ar    1  ZINC000008416770   -0.1000
     28 C28         0.9905    1.9291   47.2963 C.ar    1  ZINC000008416770   -0.1200
     29 C29       -11.0489    0.2598   52.5552 C.ar    1  ZINC000008416770   -0.1600
     30 C30       -12.1396    0.4597   53.3707 C.ar    1  ZINC000008416770   -0.0300
     31 H31       -14.1810   -1.7698   57.7413 H       1  ZINC000008416770    0.0700
     32 H32       -14.8969   -2.1914   56.1671 H       1  ZINC000008416770    0.0700
     33 H33       -13.4351   -3.0337   56.7342 H       1  ZINC000008416770    0.0800
     34 H34       -12.1579   -0.9132   56.5916 H       1  ZINC000008416770    0.0700
     35 H35       -12.8738   -1.3347   55.0175 H       1  ZINC000008416770    0.0700
     36 H36       -10.5744    1.9579   55.9895 H       1  ZINC000008416770    0.1400
     37 H37        -8.6341    1.5880   54.5291 H       1  ZINC000008416770    0.1400
     38 H38        -8.4310   -0.4458   51.8869 H       1  ZINC000008416770    0.4200
     39 H39        -6.6980    0.2226   50.5581 H       1  ZINC000008416770    0.1100
     40 H40        -6.8833    1.8646   49.8964 H       1  ZINC000008416770    0.1100
     41 H41        -5.5998    2.7537   51.8608 H       1  ZINC000008416770    0.1200
     42 H42        -5.3379    1.0803   52.4076 H       1  ZINC000008416770    0.1200
     43 H43        -1.4421    3.0258   51.1630 H       1  ZINC000008416770    0.1100
     44 H44        -1.9860    1.3772   51.5557 H       1  ZINC000008416770    0.1100
     45 H45        -1.0034    3.4901   48.7717 H       1  ZINC000008416770    0.4100
     46 H46        -2.2768    1.8544   46.4221 H       1  ZINC000008416770    0.1300
     47 H47        -1.2859    1.0302   44.3254 H       1  ZINC000008416770    0.1300
     48 H48         1.5435    1.4768   43.1115 H       1  ZINC000008416770    0.0700
     49 H49         2.2476    0.0954   43.9858 H       1  ZINC000008416770    0.0700
     50 H50         0.6215   -0.0371   43.2741 H       1  ZINC000008416770    0.0700
     51 H51         2.6107    1.3482   46.0309 H       1  ZINC000008416770    0.1300
     52 H52         1.6303    2.1798   48.1296 H       1  ZINC000008416770    0.1300
     53 H53       -11.1744   -0.2148   51.5932 H       1  ZINC000008416770    0.1400
     54 H54       -13.1210    0.1457   53.0475 H       1  ZINC000008416770    0.1400
@<TRIPOS>BOND
     1     1     2    1
     2     1    31    1
     3     1    32    1
     4     1    33    1
     5     2     3    1
     6     2    34    1
     7     2    35    1
     8     3     4    1
     9     4     5    2
    10     4     6    1
    11     6    30   ar
    12     6     7   ar
    13     7     8   ar
    14     7    36    1
    15     8     9   ar
    16     8    37    1
    17     9    10    1
    18     9    29   ar
    19    10    11   am
    20    10    38    1
    21    11    12    2
    22    11    13    1
    23    13    14    1
    24    13    39    1
    25    13    40    1
    26    14    15    1
    27    14    41    1
    28    14    42    1
    29    15    16    2
    30    15    17    1
    31    17    18    1
    32    18    19    1
    33    18    43    1
    34    18    44    1
    35    19    20    2
    36    19    21   am
    37    21    22    1
    38    21    45    1
    39    22    28   ar
    40    22    23   ar
    41    23    24   ar
    42    23    46    1
    43    24    25   ar
    44    24    47    1
    45    25    26    1
    46    25    27   ar
    47    26    48    1
    48    26    49    1
    49    26    50    1
    50    27    28   ar
    51    27    51    1
    52    28    52    1
    53    29    30   ar
    54    29    53    1
    55    30    54    1
@<TRIPOS>SUBSTRUCTURE
     1 ZINC000008416770        1 TEMP              0 ****  ****    0 ROOT


##########                                Name:    ZINC000745364361
##########                DOCK_Rotatable_Bonds:                   8
##########                         Heavy_Atoms:                  29
##########                    Molecular_Weight:             398.434
##########                DOCK_Rotatable_Bonds:                   8
##########                       Formal_Charge:          0.00999923
##########                     HBond_Acceptors:                   7
##########                        HBond_Donors:                   1
##########                         Heavy_Atoms:                  29
##########                          Grid_Score:          -34.336201
##########                     Grid_vdw_energy:          -33.483967
##########                      Grid_es_energy:           -0.852233
##########           Internal_energy_repulsive:            8.475266

@<TRIPOS>MOLECULE
ZINC000745364361
 52 54 1 0 0
SMALL
USER_CHARGES


@<TRIPOS>ATOM
      1 C1          0.7707    2.4065   51.2689 C.3     1  ZINC000745364361   -0.1700
      2 C2         -0.0729    1.7684   50.1633 C.3     1  ZINC000745364361    0.0700
      3 H3          0.0206    0.6838   50.2152 H       1  ZINC000745364361    0.1100
      4 O4          0.3936    2.2331   48.8692 O.3     1  ZINC000745364361   -0.3200
      5 C5          0.1896    1.4208   47.8203 C.2     1  ZINC000745364361    0.4700
      6 O6          0.6696    0.3121   47.8125 O.2     1  ZINC000745364361   -0.4900
      7 C7         -0.6385    1.8918   46.6525 C.3     1  ZINC000745364361   -0.0400
      8 H8         -1.6761    1.5919   46.7983 H       1  ZINC000745364361    0.1200
      9 C9         -0.5575    3.4164   46.5519 C.3     1  ZINC000745364361   -0.1400
     10 C10        -0.1113    1.2758   45.3821 C.ar    1  ZINC000745364361   -0.0500
     11 C11         1.1621    1.5838   44.9416 C.ar    1  ZINC000745364361   -0.1000
     12 C12         1.6470    1.0195   43.7763 C.ar    1  ZINC000745364361   -0.0900
     13 C13         0.8591    0.1467   43.0506 C.ar    1  ZINC000745364361   -0.1500
     14 C14        -0.4168   -0.1630   43.4913 C.ar    1  ZINC000745364361    0.1000
     15 F15        -1.1882   -1.0161   42.7826 F       1  ZINC000745364361   -0.1400
     16 C16        -0.8993    0.3987   44.6609 C.ar    1  ZINC000745364361   -0.1400
     17 C17        -1.5174    2.1575   50.3459 C.2     1  ZINC000745364361    0.5200
     18 O18        -1.8698    3.2984   50.1324 O.2     1  ZINC000745364361   -0.5000
     19 N19        -2.4175    1.2379   50.7465 N.am    1  ZINC000745364361   -0.6700
     20 C20        -3.7601    1.5996   50.9162 C.ar    1  ZINC000745364361    0.1200
     21 C21        -4.1198    2.4777   51.9301 C.ar    1  ZINC000745364361   -0.1100
     22 C22        -5.4429    2.8341   52.0974 C.ar    1  ZINC000745364361   -0.1400
     23 C23        -6.4142    2.3149   51.2515 C.ar    1  ZINC000745364361    0.1500
     24 N24        -7.7567    2.6762   51.4215 N.am    1  ZINC000745364361   -0.5600
     25 C25        -8.3029    4.0027   51.1116 C.3     1  ZINC000745364361    0.0900
     26 C26        -9.8336    3.8101   51.0327 C.3     1  ZINC000745364361   -0.1300
     27 C27       -10.0420    2.5695   51.9319 C.3     1  ZINC000745364361   -0.1500
     28 C28        -8.7116    1.8509   51.8840 C.2     1  ZINC000745364361    0.5200
     29 O29        -8.5313    0.6997   52.2208 O.2     1  ZINC000745364361   -0.5100
     30 C30        -6.0543    1.4379   50.2367 C.ar    1  ZINC000745364361   -0.1400
     31 C31        -4.7306    1.0845   50.0670 C.ar    1  ZINC000745364361   -0.0900
     32 H32         1.8155    2.1251   51.1368 H       1  ZINC000745364361    0.0800
     33 H33         0.6773    3.4912   51.2169 H       1  ZINC000745364361    0.0800
     34 H34         0.4205    2.0576   52.2402 H       1  ZINC000745364361    0.0800
     35 H35         0.4802    3.7162   46.4060 H       1  ZINC000745364361    0.0700
     36 H36        -1.1563    3.7570   45.7072 H       1  ZINC000745364361    0.0800
     37 H37        -0.9388    3.8618   47.4707 H       1  ZINC000745364361    0.0800
     38 H38         1.7786    2.2662   45.5079 H       1  ZINC000745364361    0.1300
     39 H39         2.6421    1.2612   43.4328 H       1  ZINC000745364361    0.1400
     40 H40         1.2378   -0.2934   42.1401 H       1  ZINC000745364361    0.1400
     41 H41        -1.8940    0.1575   45.0057 H       1  ZINC000745364361    0.1400
     42 H42        -2.1357    0.3257   50.9174 H       1  ZINC000745364361    0.4100
     43 H43        -3.3644    2.8815   52.5881 H       1  ZINC000745364361    0.1300
     44 H44        -5.7228    3.5165   52.8864 H       1  ZINC000745364361    0.1600
     45 H45        -8.0519    4.7085   51.9035 H       1  ZINC000745364361    0.0800
     46 H46        -7.9174    4.3553   50.1550 H       1  ZINC000745364361    0.0900
     47 H47       -10.3571    4.6767   51.4363 H       1  ZINC000745364361    0.1000
     48 H48       -10.1490    3.6074   50.0092 H       1  ZINC000745364361    0.0900
     49 H49       -10.2795    2.8730   52.9516 H       1  ZINC000745364361    0.1100
     50 H50       -10.8304    1.9341   51.5286 H       1  ZINC000745364361    0.1100
     51 H51        -6.8095    1.0343   49.5786 H       1  ZINC000745364361    0.1300
     52 H52        -4.4508    0.4024   49.2778 H       1  ZINC000745364361    0.1400
@<TRIPOS>BOND
     1     1     2    1
     2     1    32    1
     3     1    33    1
     4     1    34    1
     5     2     3    1
     6     2     4    1
     7     2    17    1
     8     4     5    1
     9     5     6    2
    10     5     7    1
    11     7     8    1
    12     7     9    1
    13     7    10    1
    14     9    35    1
    15     9    36    1
    16     9    37    1
    17    10    16   ar
    18    10    11   ar
    19    11    12   ar
    20    11    38    1
    21    12    13   ar
    22    12    39    1
    23    13    14   ar
    24    13    40    1
    25    14    15    1
    26    14    16   ar
    27    16    41    1
    28    17    18    2
    29    17    19   am
    30    19    20    1
    31    19    42    1
    32    20    31   ar
    33    20    21   ar
    34    21    22   ar
    35    21    43    1
    36    22    23   ar
    37    22    44    1
    38    23    24    1
    39    23    30   ar
    40    24    28   am
    41    24    25    1
    42    25    26    1
    43    25    45    1
    44    25    46    1
    45    26    27    1
    46    26    47    1
    47    26    48    1
    48    27    28    1
    49    27    49    1
    50    27    50    1
    51    28    29    2
    52    30    31   ar
    53    30    51    1
    54    31    52    1
@<TRIPOS>SUBSTRUCTURE
     1 ZINC000745364361        1 TEMP              0 ****  ****    0 ROOT


##########                                Name:    ZINC000609484313
##########                DOCK_Rotatable_Bonds:                  10
##########                         Heavy_Atoms:                  26
##########                    Molecular_Weight:             361.487
##########                DOCK_Rotatable_Bonds:                  10
##########                       Formal_Charge:          -0.0200004
##########                     HBond_Acceptors:                   7
##########                        HBond_Donors:                   1
##########                         Heavy_Atoms:                  26
##########                          Grid_Score:          -34.288643
##########                     Grid_vdw_energy:          -35.120926
##########                      Grid_es_energy:            0.832284
##########           Internal_energy_repulsive:           42.740120

@<TRIPOS>MOLECULE
ZINC000609484313
 57 58 1 0 0
SMALL
USER_CHARGES


@<TRIPOS>ATOM
      1 C1          1.1081    4.6299   54.0198 C.3     1  ZINC000609484313   -0.1500
      2 C2          0.6127    4.6098   52.5724 C.3     1  ZINC000609484313   -0.1300
      3 C3          0.2260    3.1809   52.1855 C.3     1  ZINC000609484313   -0.1100
      4 C4         -0.2555    3.1583   50.7335 C.3     1  ZINC000609484313   -0.1100
      5 C5         -0.7730    1.7601   50.3894 C.3     1  ZINC000609484313    0.0800
      6 H6         -0.2182    1.0165   50.9614 H       1  ZINC000609484313    0.1200
      7 C7         -2.2374    1.6679   50.7324 C.2     1  ZINC000609484313    0.4900
      8 O8         -2.7465    2.5042   51.4482 O.2     1  ZINC000609484313   -0.5000
      9 N9         -2.9816    0.6560   50.2437 N.am    1  ZINC000609484313   -0.6300
     10 C10        -4.3377    0.5716   50.5598 C.2     1  ZINC000609484313    0.2400
     11 N11        -5.1817   -0.3424   50.1585 N.2     1  ZINC000609484313   -0.3900
     12 O12        -6.2899   -0.1465   50.6007 O.3     1  ZINC000609484313    0.1000
     13 C13        -6.3302    0.9493   51.3725 C.2     1  ZINC000609484313   -0.0200
     14 C14        -7.5350    1.5019   52.0895 C.3     1  ZINC000609484313   -0.0800
     15 C15        -5.0771    1.4582   51.3872 C.2     1  ZINC000609484313   -0.2300
     16 N16        -0.5897    1.5099   48.9534 N.3     1  ZINC000609484313   -0.5000
     17 C17         0.7935    1.1091   48.6610 C.3     1  ZINC000609484313    0.0400
     18 C18         0.9230    0.7816   47.1717 C.3     1  ZINC000609484313    0.0500
     19 N19         0.5398    1.9582   46.3789 N.3     1  ZINC000609484313   -0.5100
     20 C20         0.7231    1.7079   44.9430 C.3     1  ZINC000609484313    0.1800
     21 H21         0.2710    0.7515   44.6802 H       1  ZINC000609484313    0.1200
     22 C22         0.0793    2.7836   44.1714 C.1     1  ZINC000609484313    0.1700
     23 N23        -0.4175    3.6136   43.5759 N.1     1  ZINC000609484313   -0.4200
     24 C24         2.2178    1.6718   44.6184 C.3     1  ZINC000609484313   -0.0800
     25 C25         2.4088    1.5955   43.1022 C.3     1  ZINC000609484313   -0.1400
     26 C26         2.8867    2.9396   45.1535 C.3     1  ZINC000609484313   -0.1500
     27 C27        -0.8435    2.3589   46.6713 C.3     1  ZINC000609484313    0.0500
     28 C28        -0.9729    2.6865   48.1607 C.3     1  ZINC000609484313    0.0400
     29 H29         0.3159    4.2767   54.6799 H       1  ZINC000609484313    0.0500
     30 H30         1.9776    3.9796   54.1154 H       1  ZINC000609484313    0.0500
     31 H31         1.3836    5.6479   54.2954 H       1  ZINC000609484313    0.0500
     32 H32        -0.2568    5.2601   52.4769 H       1  ZINC000609484313    0.0600
     33 H33         1.4050    4.9631   51.9123 H       1  ZINC000609484313    0.0600
     34 H34         1.0929    2.5286   52.2911 H       1  ZINC000609484313    0.0800
     35 H35        -0.5735    2.8314   52.8388 H       1  ZINC000609484313    0.0600
     36 H36        -1.0582    3.8844   50.6055 H       1  ZINC000609484313    0.0700
     37 H37         0.5728    3.4121   50.0720 H       1  ZINC000609484313    0.0800
     38 H38        -2.5743   -0.0134   49.6721 H       1  ZINC000609484313    0.4200
     39 H39        -8.3993    0.8688   51.8887 H       1  ZINC000609484313    0.0800
     40 H40        -7.3414    1.5232   53.1620 H       1  ZINC000609484313    0.0900
     41 H41        -7.7357    2.5134   51.7363 H       1  ZINC000609484313    0.0900
     42 H42        -4.7227    2.3385   51.9026 H       1  ZINC000609484313    0.1900
     43 H43         1.4699    1.9256   48.9140 H       1  ZINC000609484313    0.0800
     44 H44         1.0494    0.2287   49.2506 H       1  ZINC000609484313    0.0800
     45 H45         1.9550    0.5120   46.9469 H       1  ZINC000609484313    0.0900
     46 H46         0.2667   -0.0529   46.9245 H       1  ZINC000609484313    0.0400
     47 H47         2.6701    0.7972   45.0860 H       1  ZINC000609484313    0.0800
     48 H48         1.9564    2.4701   42.6346 H       1  ZINC000609484313    0.0600
     49 H49         3.4736    1.5698   42.8709 H       1  ZINC000609484313    0.0500
     50 H50         1.9323    0.6923   42.7210 H       1  ZINC000609484313    0.0700
     51 H51         3.9310    2.9585   44.8419 H       1  ZINC000609484313    0.0700
     52 H52         2.3735    3.8159   44.7577 H       1  ZINC000609484313    0.0600
     53 H53         2.8321    2.9474   46.2420 H       1  ZINC000609484313    0.0500
     54 H54        -1.0994    3.2393   46.0817 H       1  ZINC000609484313    0.0900
     55 H55        -1.5198    1.5424   46.4183 H       1  ZINC000609484313    0.0400
     56 H56        -2.0048    2.9560   48.3854 H       1  ZINC000609484313    0.0800
     57 H57        -0.3166    3.5209   48.4079 H       1  ZINC000609484313    0.0800
@<TRIPOS>BOND
     1     1     2    1
     2     1    29    1
     3     1    30    1
     4     1    31    1
     5     2     3    1
     6     2    32    1
     7     2    33    1
     8     3     4    1
     9     3    34    1
    10     3    35    1
    11     4     5    1
    12     4    36    1
    13     4    37    1
    14     5     6    1
    15     5     7    1
    16     5    16    1
    17     7     8    2
    18     7     9   am
    19     9    10    1
    20     9    38    1
    21    10    15    1
    22    10    11    2
    23    11    12    1
    24    12    13    1
    25    13    14    1
    26    13    15    2
    27    14    39    1
    28    14    40    1
    29    14    41    1
    30    15    42    1
    31    16    28    1
    32    16    17    1
    33    17    18    1
    34    17    43    1
    35    17    44    1
    36    18    19    1
    37    18    45    1
    38    18    46    1
    39    19    20    1
    40    19    27    1
    41    20    21    1
    42    20    22    1
    43    20    24    1
    44    22    23    3
    45    24    25    1
    46    24    26    1
    47    24    47    1
    48    25    48    1
    49    25    49    1
    50    25    50    1
    51    26    51    1
    52    26    52    1
    53    26    53    1
    54    27    28    1
    55    27    54    1
    56    27    55    1
    57    28    56    1
    58    28    57    1
@<TRIPOS>SUBSTRUCTURE
     1 ZINC000609484313        1 TEMP              0 ****  ****    0 ROOT


##########                                Name:    ZINC000981048968
##########                DOCK_Rotatable_Bonds:                   7
##########                         Heavy_Atoms:                  25
##########                    Molecular_Weight:             344.414
##########                DOCK_Rotatable_Bonds:                   7
##########                       Formal_Charge:                0.02
##########                     HBond_Acceptors:                   7
##########                        HBond_Donors:                   2
##########                         Heavy_Atoms:                  25
##########                          Grid_Score:          -34.282604
##########                     Grid_vdw_energy:          -31.821520
##########                      Grid_es_energy:           -2.461086
##########           Internal_energy_repulsive:            4.385373

@<TRIPOS>MOLECULE
ZINC000981048968
 49 52 1 0 0
SMALL
USER_CHARGES


@<TRIPOS>ATOM
      1 C1         -8.5532    3.4397   51.5888 C.3     1  ZINC000981048968   -0.0800
      2 C2         -7.5207    2.3960   51.2485 C.2     1  ZINC000981048968   -0.0100
      3 C3         -6.2116    2.6272   51.0661 C.2     1  ZINC000981048968   -0.1600
      4 C4         -5.6100    1.3218   50.7570 C.2     1  ZINC000981048968   -0.2300
      5 C5         -4.1913    1.0391   50.4750 C.2     1  ZINC000981048968    0.5900
      6 O6         -3.8634   -0.0460   50.0345 O.2     1  ZINC000981048968   -0.5300
      7 N7         -3.2574    1.9832   50.7053 N.am    1  ZINC000981048968   -0.7300
      8 C8         -1.8469    1.7015   50.4266 C.3     1  ZINC000981048968    0.1500
      9 H9         -1.6381    0.6520   50.6340 H       1  ZINC000981048968    0.0900
     10 C10        -0.9659    2.5821   51.3151 C.3     1  ZINC000981048968   -0.1300
     11 C11         0.5071    2.2880   51.0241 C.3     1  ZINC000981048968   -0.1200
     12 C12         0.8060    2.5865   49.5535 C.3     1  ZINC000981048968   -0.1100
     13 C13        -0.0751    1.7060   48.6651 C.3     1  ZINC000981048968    0.1000
     14 H14         0.1337    0.6564   48.8726 H       1  ZINC000981048968    0.0500
     15 N15         0.2118    1.9926   47.2532 N.3     1  ZINC000981048968   -0.6800
     16 C16        -0.2719    0.9091   46.3872 C.3     1  ZINC000981048968    0.1500
     17 C17         0.4815    0.9347   45.0823 C.2     1  ZINC000981048968    0.1800
     18 N18         0.0783    1.4759   43.9719 N.2     1  ZINC000981048968   -0.3800
     19 O19         0.9134    1.3272   43.1048 O.3     1  ZINC000981048968    0.0800
     20 C20         1.9606    0.6568   43.5947 C.2     1  ZINC000981048968    0.2100
     21 C21         3.2080    0.2677   42.8440 C.3     1  ZINC000981048968   -0.0800
     22 C22         3.0424   -0.2194   41.4031 C.3     1  ZINC000981048968   -0.1600
     23 C23         3.6398    1.1618   41.6799 C.3     1  ZINC000981048968   -0.1500
     24 N24         1.6974    0.4066   44.8547 N.2     1  ZINC000981048968   -0.4600
     25 C25        -1.5481    2.0000   48.9561 C.3     1  ZINC000981048968   -0.1300
     26 C26        -6.6392    0.4269   50.7867 C.2     1  ZINC000981048968    0.0200
     27 O27        -7.7628    1.0860   51.0853 O.3     1  ZINC000981048968   -0.1700
     28 H28        -9.5308    2.9668   51.6821 H       1  ZINC000981048968    0.0800
     29 H29        -8.2894    3.9178   52.5322 H       1  ZINC000981048968    0.0900
     30 H30        -8.5862    4.1894   50.7982 H       1  ZINC000981048968    0.0900
     31 H31        -5.7037    3.5780   51.1324 H       1  ZINC000981048968    0.1600
     32 H32        -3.5190    2.8491   51.0554 H       1  ZINC000981048968    0.4000
     33 H33        -1.1747    3.6316   51.1076 H       1  ZINC000981048968    0.0700
     34 H34        -1.1787    2.3694   52.3627 H       1  ZINC000981048968    0.0700
     35 H35         1.1348    2.9153   51.6570 H       1  ZINC000981048968    0.0700
     36 H36         0.7159    1.2384   51.2314 H       1  ZINC000981048968    0.0600
     37 H37         0.5971    3.6360   49.3461 H       1  ZINC000981048968    0.0700
     38 H38         1.8553    2.3770   49.3462 H       1  ZINC000981048968    0.0700
     39 H39        -0.1822    2.8795   46.9770 H       1  ZINC000981048968    0.3500
     40 H40        -0.1115   -0.0494   46.8807 H       1  ZINC000981048968    0.1100
     41 H41        -1.3361    1.0453   46.1950 H       1  ZINC000981048968    0.0600
     42 H42         3.9935   -0.1919   43.4438 H       1  ZINC000981048968    0.1500
     43 H43         3.7189   -0.9998   41.0547 H       1  ZINC000981048968    0.1200
     44 H44         2.0312   -0.2585   40.9981 H       1  ZINC000981048968    0.1100
     45 H45         3.0215    2.0313   41.4570 H       1  ZINC000981048968    0.1000
     46 H46         4.7094    1.2899   41.5135 H       1  ZINC000981048968    0.1200
     47 H47        -2.1758    1.3728   48.3232 H       1  ZINC000981048968    0.0700
     48 H48        -1.7569    3.0496   48.7487 H       1  ZINC000981048968    0.0800
     49 H49        -6.5589   -0.6345   50.6036 H       1  ZINC000981048968    0.2100
@<TRIPOS>BOND
     1     1     2    1
     2     1    28    1
     3     1    29    1
     4     1    30    1
     5     2    27    1
     6     2     3    2
     7     3     4    1
     8     3    31    1
     9     4     5    1
    10     4    26    2
    11     5     6    2
    12     5     7   am
    13     7     8    1
    14     7    32    1
    15     8     9    1
    16     8    25    1
    17     8    10    1
    18    10    11    1
    19    10    33    1
    20    10    34    1
    21    11    12    1
    22    11    35    1
    23    11    36    1
    24    12    13    1
    25    12    37    1
    26    12    38    1
    27    13    14    1
    28    13    15    1
    29    13    25    1
    30    15    16    1
    31    15    39    1
    32    16    17    1
    33    16    40    1
    34    16    41    1
    35    17    24    1
    36    17    18    2
    37    18    19    1
    38    19    20    1
    39    20    21    1
    40    20    24    2
    41    21    23    1
    42    21    22    1
    43    21    42    1
    44    22    23    1
    45    22    43    1
    46    22    44    1
    47    23    45    1
    48    23    46    1
    49    25    47    1
    50    25    48    1
    51    26    27    1
    52    26    49    1
@<TRIPOS>SUBSTRUCTURE
     1 ZINC000981048968        1 TEMP              0 ****  ****    0 ROOT


##########                                Name:    ZINC001109082135
##########                DOCK_Rotatable_Bonds:                   9
##########                         Heavy_Atoms:                  27
##########                    Molecular_Weight:             373.455
##########                DOCK_Rotatable_Bonds:                   9
##########                       Formal_Charge:          -0.0100003
##########                     HBond_Acceptors:                   8
##########                        HBond_Donors:                   3
##########                         Heavy_Atoms:                  27
##########                          Grid_Score:          -34.282478
##########                     Grid_vdw_energy:          -32.825653
##########                      Grid_es_energy:           -1.456825
##########           Internal_energy_repulsive:           17.699583

@<TRIPOS>MOLECULE
ZINC001109082135
 54 57 1 0 0
SMALL
USER_CHARGES


@<TRIPOS>ATOM
      1 C1          5.6352   -2.6812   40.9366 C.3     1  ZINC001109082135   -0.1400
      2 C2          6.1170   -1.5315   41.8237 C.3     1  ZINC001109082135   -0.1400
      3 C3          5.0588   -0.4597   41.8757 C.2     1  ZINC001109082135    0.5100
      4 O4          5.0640    0.4375   41.0596 O.2     1  ZINC001109082135   -0.5400
      5 N5          4.1069   -0.4981   42.8289 N.am    1  ZINC001109082135   -0.7200
      6 C6          3.0792    0.5448   42.8805 C.3     1  ZINC001109082135    0.1000
      7 C7          2.5809    0.6894   44.2953 C.2     1  ZINC001109082135    0.5100
      8 O8          3.3231    0.4582   45.2263 O.2     1  ZINC001109082135   -0.5300
      9 N9          1.3104    1.0757   44.5260 N.am    1  ZINC001109082135   -0.7100
     10 C10         0.8265    1.2180   45.9015 C.3     1  ZINC001109082135    0.1100
     11 H11         1.0491    0.3214   46.4800 H       1  ZINC001109082135    0.0900
     12 C12         1.4488    2.4675   46.5717 C.3     1  ZINC001109082135   -0.1600
     13 C13         0.2127    3.3572   46.9024 C.3     1  ZINC001109082135    0.0600
     14 H14         0.3658    4.1051   47.6804 H       1  ZINC001109082135    0.1300
     15 C15        -0.2695    3.9068   45.5260 C.3     1  ZINC001109082135   -0.1200
     16 C16        -0.8902    2.6663   44.8382 C.3     1  ZINC001109082135   -0.1100
     17 C17        -0.7032    1.5155   45.9169 C.3     1  ZINC001109082135    0.0400
     18 H18        -1.3666    0.6574   45.8095 H       1  ZINC001109082135    0.1200
     19 N19        -0.8278    2.3077   47.1947 N.3     1  ZINC001109082135   -0.4800
     20 C20        -0.4587    1.4909   48.3586 C.3     1  ZINC001109082135    0.0800
     21 C21        -1.4405    1.7356   49.4756 C.2     1  ZINC001109082135    0.2000
     22 C22        -1.1851    2.6923   50.4107 C.2     1  ZINC001109082135   -0.2900
     23 C23        -2.1248    2.8958   51.4421 C.2     1  ZINC001109082135    0.5200
     24 O24        -1.9353    3.7425   52.2995 O.2     1  ZINC001109082135   -0.5400
     25 N25        -3.2393    2.1338   51.4602 N.am    1  ZINC001109082135   -0.6300
     26 C26        -3.4329    1.2034   50.5049 C.2     1  ZINC001109082135    0.4300
     27 C27        -4.6822    0.3612   50.5395 C.3     1  ZINC001109082135   -0.1400
     28 C28        -5.7482    0.7211   51.5762 C.3     1  ZINC001109082135   -0.1400
     29 C29        -5.9900    1.0190   50.0951 C.3     1  ZINC001109082135   -0.1400
     30 N30        -2.5646    1.0184   49.5465 N.2     1  ZINC001109082135   -0.5300
     31 H31         5.4458   -2.3086   39.9299 H       1  ZINC001109082135    0.0600
     32 H32         6.4005   -3.4564   40.8991 H       1  ZINC001109082135    0.0600
     33 H33         4.7161   -3.0976   41.3488 H       1  ZINC001109082135    0.0600
     34 H34         6.3064   -1.9042   42.8305 H       1  ZINC001109082135    0.1000
     35 H35         7.0360   -1.1150   41.4115 H       1  ZINC001109082135    0.1000
     36 H36         4.1021   -1.2164   43.4808 H       1  ZINC001109082135    0.4100
     37 H37         3.5050    1.4911   42.5466 H       1  ZINC001109082135    0.1000
     38 H38         2.2495    0.2698   42.2293 H       1  ZINC001109082135    0.1000
     39 H39         0.7166    1.2594   43.7815 H       1  ZINC001109082135    0.4000
     40 H40         1.9773    2.1906   47.4838 H       1  ZINC001109082135    0.0800
     41 H41         2.1173    2.9809   45.8805 H       1  ZINC001109082135    0.0800
     42 H42        -1.0207    4.6843   45.6653 H       1  ZINC001109082135    0.0700
     43 H43         0.5732    4.2851   44.9473 H       1  ZINC001109082135    0.0700
     44 H44        -1.9489    2.8289   44.6363 H       1  ZINC001109082135    0.0700
     45 H45        -0.3550    2.4296   43.9185 H       1  ZINC001109082135    0.0700
     46 H46        -0.4773    0.4365   48.0831 H       1  ZINC001109082135    0.1000
     47 H47         0.5435    1.7623   48.6899 H       1  ZINC001109082135    0.0700
     48 H48        -0.2817    3.2823   50.3634 H       1  ZINC001109082135    0.1600
     49 H49        -3.8997    2.2557   52.1603 H       1  ZINC001109082135    0.4200
     50 H50        -4.5443   -0.6942   50.3043 H       1  ZINC001109082135    0.1300
     51 H51        -6.3120   -0.0976   52.0235 H       1  ZINC001109082135    0.1100
     52 H52        -5.5460    1.5670   52.2332 H       1  ZINC001109082135    0.1100
     53 H53        -5.9470    2.0609   49.7777 H       1  ZINC001109082135    0.1100
     54 H54        -6.7129    0.3963   49.5680 H       1  ZINC001109082135    0.1100
@<TRIPOS>BOND
     1     1     2    1
     2     1    31    1
     3     1    32    1
     4     1    33    1
     5     2     3    1
     6     2    34    1
     7     2    35    1
     8     3     4    2
     9     3     5   am
    10     5     6    1
    11     5    36    1
    12     6     7    1
    13     6    37    1
    14     6    38    1
    15     7     8    2
    16     7     9   am
    17     9    10    1
    18     9    39    1
    19    10    11    1
    20    10    17    1
    21    10    12    1
    22    12    13    1
    23    12    40    1
    24    12    41    1
    25    13    14    1
    26    13    19    1
    27    13    15    1
    28    15    16    1
    29    15    42    1
    30    15    43    1
    31    16    17    1
    32    16    44    1
    33    16    45    1
    34    17    18    1
    35    17    19    1
    36    19    20    1
    37    20    21    1
    38    20    46    1
    39    20    47    1
    40    21    30    1
    41    21    22    2
    42    22    23    1
    43    22    48    1
    44    23    24    2
    45    23    25   am
    46    25    26    1
    47    25    49    1
    48    26    27    1
    49    26    30    2
    50    27    29    1
    51    27    28    1
    52    27    50    1
    53    28    29    1
    54    28    51    1
    55    28    52    1
    56    29    53    1
    57    29    54    1
@<TRIPOS>SUBSTRUCTURE
     1 ZINC001109082135        1 TEMP              0 ****  ****    0 ROOT


##########                                Name:    ZINC000150894060
##########                DOCK_Rotatable_Bonds:                  10
##########                         Heavy_Atoms:                  27
##########                    Molecular_Weight:              366.42
##########                DOCK_Rotatable_Bonds:                  10
##########                       Formal_Charge:        -6.70552e-07
##########                     HBond_Acceptors:                   7
##########                        HBond_Donors:                   2
##########                         Heavy_Atoms:                  27
##########                          Grid_Score:          -34.278862
##########                     Grid_vdw_energy:          -33.545105
##########                      Grid_es_energy:           -0.733755
##########           Internal_energy_repulsive:           18.076307

@<TRIPOS>MOLECULE
ZINC000150894060
 49 51 1 0 0
SMALL
USER_CHARGES


@<TRIPOS>ATOM
      1 C1          0.9394    5.1290   46.5098 C.3     1  ZINC000150894060   -0.1000
      2 C2          0.2686    4.6102   45.2640 C.2     1  ZINC000150894060   -0.0800
      3 C3         -0.4646    3.4640   45.1503 C.2     1  ZINC000150894060   -0.1000
      4 C4         -0.7426    2.5083   46.2274 C.2     1  ZINC000150894060    0.6100
      5 O5         -1.3485    1.4805   45.9876 O.2     1  ZINC000150894060   -0.5100
      6 N6         -0.3269    2.7682   47.4828 N.am    1  ZINC000150894060   -0.7200
      7 C7         -0.6029    1.8126   48.5584 C.3     1  ZINC000150894060    0.1200
      8 C8         -1.9413    2.1567   49.2152 C.3     1  ZINC000150894060   -0.1500
      9 C9         -2.1504    1.2676   50.4427 C.3     1  ZINC000150894060    0.1200
     10 N10        -3.4403    1.5843   51.0610 N.am    1  ZINC000150894060   -0.7300
     11 C11        -4.5178    0.8171   50.8027 C.2     1  ZINC000150894060    0.5600
     12 O12        -4.4192   -0.1385   50.0581 O.2     1  ZINC000150894060   -0.5300
     13 C13        -5.8199    1.1378   51.4253 C.ar    1  ZINC000150894060   -0.1300
     14 C14        -5.9347    2.2294   52.2874 C.ar    1  ZINC000150894060   -0.0900
     15 C15        -7.1528    2.5235   52.8646 C.ar    1  ZINC000150894060   -0.0900
     16 C16        -8.2590    1.7387   52.5909 C.ar    1  ZINC000150894060   -0.0800
     17 C17        -9.5862    2.0655   53.2255 C.3     1  ZINC000150894060    0.1700
     18 N18        -9.6971    1.3712   54.5107 N.pl3   1  ZINC000150894060   -0.3700
     19 C19       -10.3150    0.1907   54.7246 C.2     1  ZINC000150894060    0.0500
     20 C20       -10.1952   -0.1053   56.0396 C.2     1  ZINC000150894060   -0.2700
     21 C21        -9.4794    0.9297   56.6501 C.2     1  ZINC000150894060    0.0400
     22 N22        -9.1751    1.8123   55.7335 N.2     1  ZINC000150894060   -0.2900
     23 C23        -8.1520    0.6554   51.7369 C.ar    1  ZINC000150894060   -0.1100
     24 C24        -6.9411    0.3536   51.1489 C.ar    1  ZINC000150894060   -0.0600
     25 O25        -0.8887    3.3647   43.8734 O.3     1  ZINC000150894060   -0.1700
     26 C26        -0.4442    4.4170   43.1743 C.2     1  ZINC000150894060    0.0000
     27 C27         0.2714    5.2148   43.9973 C.2     1  ZINC000150894060   -0.2300
     28 H28         0.2473    5.7711   47.0546 H       1  ZINC000150894060    0.0800
     29 H29         1.2307    4.2901   47.1419 H       1  ZINC000150894060    0.0900
     30 H30         1.8253    5.7011   46.2341 H       1  ZINC000150894060    0.0700
     31 H31         0.1551    3.5879   47.6742 H       1  ZINC000150894060    0.4100
     32 H32        -0.6489    0.8047   48.1461 H       1  ZINC000150894060    0.0800
     33 H33         0.1912    1.8646   49.3032 H       1  ZINC000150894060    0.0800
     34 H34        -1.9379    3.2029   49.5206 H       1  ZINC000150894060    0.0800
     35 H35        -2.7492    1.9888   48.5031 H       1  ZINC000150894060    0.0800
     36 H36        -2.1402    0.2208   50.1392 H       1  ZINC000150894060    0.0800
     37 H37        -1.3500    1.4455   51.1608 H       1  ZINC000150894060    0.0800
     38 H38        -3.5188    2.3462   51.6562 H       1  ZINC000150894060    0.4000
     39 H39        -5.0720    2.8424   52.5024 H       1  ZINC000150894060    0.1300
     40 H40        -7.2430    3.3679   53.5319 H       1  ZINC000150894060    0.1300
     41 H41        -9.6569    3.1413   53.3864 H       1  ZINC000150894060    0.1100
     42 H42       -10.3929    1.7428   52.5673 H       1  ZINC000150894060    0.1000
     43 H43       -10.8158   -0.4100   53.9797 H       1  ZINC000150894060    0.1700
     44 H44       -10.5839   -0.9850   56.5308 H       1  ZINC000150894060    0.1500
     45 H45        -9.2186    0.9878   57.6966 H       1  ZINC000150894060    0.1800
     46 H46        -9.0193    0.0470   51.5271 H       1  ZINC000150894060    0.1300
     47 H47        -6.8590   -0.4921   50.4822 H       1  ZINC000150894060    0.1400
     48 H48        -0.6305    4.5999   42.1262 H       1  ZINC000150894060    0.2100
     49 H49         0.7594    6.1403   43.7292 H       1  ZINC000150894060    0.1600
@<TRIPOS>BOND
     1     1     2    1
     2     1    28    1
     3     1    29    1
     4     1    30    1
     5     2    27    1
     6     2     3    2
     7     3     4    1
     8     3    25    1
     9     4     5    2
    10     4     6   am
    11     6     7    1
    12     6    31    1
    13     7     8    1
    14     7    32    1
    15     7    33    1
    16     8     9    1
    17     8    34    1
    18     8    35    1
    19     9    10    1
    20     9    36    1
    21     9    37    1
    22    10    11   am
    23    10    38    1
    24    11    12    2
    25    11    13    1
    26    13    24   ar
    27    13    14   ar
    28    14    15   ar
    29    14    39    1
    30    15    16   ar
    31    15    40    1
    32    16    17    1
    33    16    23   ar
    34    17    18    1
    35    17    41    1
    36    17    42    1
    37    18    22    1
    38    18    19    1
    39    19    20    2
    40    19    43    1
    41    20    21    1
    42    20    44    1
    43    21    22    2
    44    21    45    1
    45    23    24   ar
    46    23    46    1
    47    24    47    1
    48    25    26    1
    49    26    27    2
    50    26    48    1
    51    27    49    1
@<TRIPOS>SUBSTRUCTURE
     1 ZINC000150894060        1 TEMP              0 ****  ****    0 ROOT


##########                                Name:    ZINC000502834785
##########                DOCK_Rotatable_Bonds:                   9
##########                         Heavy_Atoms:                  26
##########                    Molecular_Weight:             356.468
##########                DOCK_Rotatable_Bonds:                   9
##########                       Formal_Charge:           0.0199998
##########                     HBond_Acceptors:                   6
##########                        HBond_Donors:                   2
##########                         Heavy_Atoms:                  26
##########                          Grid_Score:          -34.277088
##########                     Grid_vdw_energy:          -33.664841
##########                      Grid_es_energy:           -0.612248
##########           Internal_energy_repulsive:           23.909941

@<TRIPOS>MOLECULE
ZINC000502834785
 54 56 1 0 0
SMALL
USER_CHARGES


@<TRIPOS>ATOM
      1 C1         -1.1965    3.3811   51.5724 C.3     1  ZINC000502834785   -0.1800
      2 C2         -1.9908    2.4496   50.6547 C.3     1  ZINC000502834785    0.0800
      3 C3         -1.0625    1.3675   50.0994 C.3     1  ZINC000502834785   -0.1500
      4 O4         -3.0467    1.8363   51.3970 O.3     1  ZINC000502834785   -0.3800
      5 C5         -3.9658    1.0927   50.5943 C.3     1  ZINC000502834785    0.1000
      6 C6         -5.3417    1.1697   51.2040 C.ar    1  ZINC000502834785   -0.0800
      7 C7         -6.2632    0.1687   50.9593 C.ar    1  ZINC000502834785   -0.1000
      8 C8         -7.5253    0.2393   51.5187 C.ar    1  ZINC000502834785   -0.1000
      9 C9         -7.8658    1.3106   52.3231 C.ar    1  ZINC000502834785   -0.1000
     10 C10        -9.2421    1.3879   52.9325 C.3     1  ZINC000502834785    0.1600
     11 N11        -9.1966    0.8825   54.3068 N.am    1  ZINC000502834785   -0.7300
     12 C12       -10.2408    0.1919   54.8057 C.2     1  ZINC000502834785    0.5100
     13 O13       -11.2176   -0.0125   54.1165 O.2     1  ZINC000502834785   -0.5200
     14 C14       -10.1947   -0.3263   56.2201 C.3     1  ZINC000502834785    0.0300
     15 N15       -11.1673   -1.4164   56.3741 N.3     1  ZINC000502834785   -0.5000
     16 C16       -12.5476   -0.8902   56.4366 C.3     1  ZINC000502834785    0.0500
     17 C17       -13.2933   -1.8488   57.3981 C.3     1  ZINC000502834785   -0.1300
     18 C18       -12.1936   -2.1577   58.4479 C.3     1  ZINC000502834785   -0.1300
     19 C19       -10.9039   -2.1903   57.6011 C.3     1  ZINC000502834785    0.1500
     20 H20       -10.6550   -3.2199   57.3440 H       1  ZINC000502834785    0.1100
     21 C21        -9.7691   -1.5658   58.3713 C.2     1  ZINC000502834785    0.0600
     22 N22        -8.5141   -1.9322   58.3202 N.2     1  ZINC000502834785   -0.2900
     23 N23        -7.7810   -1.1041   59.1800 N.pl3   1  ZINC000502834785   -0.4800
     24 C24        -8.6391   -0.2304   59.7468 C.2     1  ZINC000502834785    0.0600
     25 C25        -9.8745   -0.4906   59.2597 C.2     1  ZINC000502834785   -0.2600
     26 C26        -6.9440    2.3109   52.5689 C.ar    1  ZINC000502834785   -0.1000
     27 C27        -5.6806    2.2384   52.0127 C.ar    1  ZINC000502834785   -0.1000
     28 H28        -1.8579    4.1520   51.9680 H       1  ZINC000502834785    0.0600
     29 H29        -0.7747    2.8061   52.3968 H       1  ZINC000502834785    0.0600
     30 H30        -0.3911    3.8490   51.0062 H       1  ZINC000502834785    0.0700
     31 H31        -2.4126    3.0245   49.8303 H       1  ZINC000502834785    0.0600
     32 H32        -0.6407    0.7926   50.9237 H       1  ZINC000502834785    0.0600
     33 H33        -1.6284    0.7039   49.4455 H       1  ZINC000502834785    0.0600
     34 H34        -0.2571    1.8353   49.5331 H       1  ZINC000502834785    0.0700
     35 H35        -3.9903    1.5111   49.5880 H       1  ZINC000502834785    0.0600
     36 H36        -3.6470    0.0514   50.5470 H       1  ZINC000502834785    0.0600
     37 H37        -5.9971   -0.6684   50.3309 H       1  ZINC000502834785    0.1300
     38 H38        -8.2454   -0.5424   51.3269 H       1  ZINC000502834785    0.1300
     39 H39        -9.5795    2.4243   52.9375 H       1  ZINC000502834785    0.0800
     40 H40        -9.9336    0.7833   52.3458 H       1  ZINC000502834785    0.0800
     41 H41        -8.4148    1.0450   54.8577 H       1  ZINC000502834785    0.4000
     42 H42        -9.1939   -0.6990   56.4381 H       1  ZINC000502834785    0.1000
     43 H43       -10.4406    0.4802   56.9108 H       1  ZINC000502834785    0.0800
     44 H44       -12.5492    0.1242   56.8354 H       1  ZINC000502834785    0.0400
     45 H45       -13.0068   -0.9111   55.4483 H       1  ZINC000502834785    0.1000
     46 H46       -14.1463   -1.3523   57.8607 H       1  ZINC000502834785    0.0800
     47 H47       -13.6050   -2.7562   56.8808 H       1  ZINC000502834785    0.0800
     48 H48       -12.1430   -1.3674   59.1969 H       1  ZINC000502834785    0.0800
     49 H49       -12.3705   -3.1250   58.9181 H       1  ZINC000502834785    0.0800
     50 H50        -6.8253   -1.1504   59.3396 H       1  ZINC000502834785    0.4400
     51 H51        -8.3848    0.5412   60.4584 H       1  ZINC000502834785    0.1800
     52 H52       -10.7824    0.0350   59.5163 H       1  ZINC000502834785    0.1500
     53 H53        -7.2099    3.1478   53.1977 H       1  ZINC000502834785    0.1300
     54 H54        -4.9603    3.0199   52.2047 H       1  ZINC000502834785    0.1200
@<TRIPOS>BOND
     1     1     2    1
     2     1    28    1
     3     1    29    1
     4     1    30    1
     5     2     3    1
     6     2     4    1
     7     2    31    1
     8     3    32    1
     9     3    33    1
    10     3    34    1
    11     4     5    1
    12     5     6    1
    13     5    35    1
    14     5    36    1
    15     6    27   ar
    16     6     7   ar
    17     7     8   ar
    18     7    37    1
    19     8     9   ar
    20     8    38    1
    21     9    10    1
    22     9    26   ar
    23    10    11    1
    24    10    39    1
    25    10    40    1
    26    11    12   am
    27    11    41    1
    28    12    13    2
    29    12    14    1
    30    14    15    1
    31    14    42    1
    32    14    43    1
    33    15    19    1
    34    15    16    1
    35    16    17    1
    36    16    44    1
    37    16    45    1
    38    17    18    1
    39    17    46    1
    40    17    47    1
    41    18    19    1
    42    18    48    1
    43    18    49    1
    44    19    20    1
    45    19    21    1
    46    21    25    1
    47    21    22    2
    48    22    23    1
    49    23    24    1
    50    23    50    1
    51    24    25    2
    52    24    51    1
    53    25    52    1
    54    26    27   ar
    55    26    53    1
    56    27    54    1
@<TRIPOS>SUBSTRUCTURE
     1 ZINC000502834785        1 TEMP              0 ****  ****    0 ROOT


##########                                Name:    ZINC000572257265
##########                DOCK_Rotatable_Bonds:                  11
##########                         Heavy_Atoms:                  24
##########                    Molecular_Weight:             393.509
##########                DOCK_Rotatable_Bonds:                  11
##########                       Formal_Charge:          -0.0100002
##########                     HBond_Acceptors:                  11
##########                        HBond_Donors:                   3
##########                         Heavy_Atoms:                  24
##########                          Grid_Score:          -34.235222
##########                     Grid_vdw_energy:          -34.206009
##########                      Grid_es_energy:           -0.029211
##########           Internal_energy_repulsive:            6.735067

@<TRIPOS>MOLECULE
ZINC000572257265
 43 43 1 0 0
SMALL
USER_CHARGES


@<TRIPOS>ATOM
      1 C1          0.2610    4.4548   42.5152 C.3     1  ZINC000572257265   -0.1300
      2 S2          0.6368    3.0363   43.5817 S.3     1  ZINC000572257265   -0.2200
      3 C3         -0.1678    3.4777   45.1464 C.3     1  ZINC000572257265   -0.1300
      4 C4          0.0592    2.3626   46.1690 C.3     1  ZINC000572257265    0.1500
      5 C5         -0.8058    1.1538   45.8060 C.3     1  ZINC000572257265   -0.1500
      6 O6          1.4366    1.9822   46.1609 O.3     1  ZINC000572257265   -0.5400
      7 C7         -0.3234    2.8633   47.5632 C.3     1  ZINC000572257265    0.0900
      8 N8          0.3826    2.0749   48.5760 N.am    1  ZINC000572257265   -1.1100
      9 S9          0.0928    2.3430   50.1844 S.o2    1  ZINC000572257265    2.6900
     10 O10         0.8008    1.3353   50.8931 O.2     1  ZINC000572257265   -0.9400
     11 O11         0.2934    3.7329   50.4018 O.2     1  ZINC000572257265   -0.9500
     12 C12        -1.6199    2.0378   50.4636 C.ar    1  ZINC000572257265   -0.6300
     13 C13        -2.1954    0.8646   50.0129 C.ar    1  ZINC000572257265   -0.0400
     14 C14        -3.5392    0.6252   50.2319 C.ar    1  ZINC000572257265   -0.0400
     15 C15        -4.3073    1.5589   50.9021 C.ar    1  ZINC000572257265   -0.6300
     16 S16        -6.0202    1.2540   51.1807 S.o2    1  ZINC000572257265    2.7000
     17 O17        -6.1945   -0.1543   51.1052 O.2     1  ZINC000572257265   -0.9400
     18 O18        -6.3846    2.0224   52.3191 O.2     1  ZINC000572257265   -0.9400
     19 N19        -6.8475    1.8969   49.8983 N.am    1  ZINC000572257265   -1.1200
     20 C20        -6.7495    3.3293   49.6073 C.3     1  ZINC000572257265    0.2200
     21 C21        -8.0244    3.9859   49.9399 C.1     1  ZINC000572257265    0.1900
     22 N22        -9.0081    4.4926   50.1967 N.1     1  ZINC000572257265   -0.3900
     23 C23        -3.7315    2.7316   51.3539 C.ar    1  ZINC000572257265   -0.0400
     24 C24        -2.3869    2.9693   51.1382 C.ar    1  ZINC000572257265   -0.0400
     25 H25         0.6741    5.3613   42.9575 H       1  ZINC000572257265    0.0800
     26 H26         0.7027    4.2967   41.5313 H       1  ZINC000572257265    0.1000
     27 H27        -0.8195    4.5587   42.4160 H       1  ZINC000572257265    0.0800
     28 H28         0.2566    4.4082   45.5233 H       1  ZINC000572257265    0.0900
     29 H29        -1.2374    3.6069   44.9811 H       1  ZINC000572257265    0.0900
     30 H30        -0.5331    0.7971   44.8128 H       1  ZINC000572257265    0.0800
     31 H31        -0.6440    0.3594   46.5345 H       1  ZINC000572257265    0.0700
     32 H32        -1.8564    1.4440   45.8121 H       1  ZINC000572257265    0.0800
     33 H33         1.6592    1.2967   46.8056 H       1  ZINC000572257265    0.3800
     34 H34        -0.0459    3.9128   47.6611 H       1  ZINC000572257265    0.0900
     35 H35        -1.3989    2.7572   47.7047 H       1  ZINC000572257265    0.0800
     36 H36         1.0198    1.3957   48.3047 H       1  ZINC000572257265    0.4300
     37 H37        -1.5953    0.1351   49.4894 H       1  ZINC000572257265    0.1500
     38 H38        -3.9889   -0.2911   49.8791 H       1  ZINC000572257265    0.1500
     39 H39        -7.3968    1.3250   49.3397 H       1  ZINC000572257265    0.4300
     40 H40        -5.9489    3.7673   50.2034 H       1  ZINC000572257265    0.1100
     41 H41        -6.5333    3.4710   48.5484 H       1  ZINC000572257265    0.1300
     42 H42        -4.3316    3.4609   51.8778 H       1  ZINC000572257265    0.1600
     43 H43        -1.9371    3.8855   51.4913 H       1  ZINC000572257265    0.1500
@<TRIPOS>BOND
     1     1     2    1
     2     1    25    1
     3     1    26    1
     4     1    27    1
     5     2     3    1
     6     3     4    1
     7     3    28    1
     8     3    29    1
     9     4     5    1
    10     4     6    1
    11     4     7    1
    12     5    30    1
    13     5    31    1
    14     5    32    1
    15     6    33    1
    16     7     8    1
    17     7    34    1
    18     7    35    1
    19     8     9   am
    20     8    36    1
    21     9    10    2
    22     9    11    2
    23     9    12    1
    24    12    24   ar
    25    12    13   ar
    26    13    14   ar
    27    13    37    1
    28    14    15   ar
    29    14    38    1
    30    15    16    1
    31    15    23   ar
    32    16    17    2
    33    16    18    2
    34    16    19   am
    35    19    20    1
    36    19    39    1
    37    20    21    1
    38    20    40    1
    39    20    41    1
    40    21    22    3
    41    23    24   ar
    42    23    42    1
    43    24    43    1
@<TRIPOS>SUBSTRUCTURE
     1 ZINC000572257265        1 TEMP              0 ****  ****    0 ROOT


##########                                Name:    ZINC000534799364
##########                DOCK_Rotatable_Bonds:                   4
##########                         Heavy_Atoms:                  29
##########                    Molecular_Weight:             391.491
##########                DOCK_Rotatable_Bonds:                   4
##########                       Formal_Charge:           0.0199998
##########                     HBond_Acceptors:                   6
##########                        HBond_Donors:                   0
##########                         Heavy_Atoms:                  29
##########                          Grid_Score:          -34.192184
##########                     Grid_vdw_energy:          -33.026447
##########                      Grid_es_energy:           -1.165739
##########           Internal_energy_repulsive:           15.020029

@<TRIPOS>MOLECULE
ZINC000534799364
 55 59 1 0 0
SMALL
USER_CHARGES


@<TRIPOS>ATOM
      1 C1          2.1513    1.1414   42.8646 C.3     1  ZINC000534799364   -0.1100
      2 C2          1.4609    2.4795   42.8030 C.ar    1  ZINC000534799364   -0.0200
      3 C3          1.5656    3.2808   41.6782 C.ar    1  ZINC000534799364   -0.1700
      4 C4          0.9186    4.5027   41.6568 C.ar    1  ZINC000534799364    0.1000
      5 N5          0.2072    4.9110   42.6891 N.ar    1  ZINC000534799364   -0.4800
      6 C6          0.0814    4.1800   43.7787 C.ar    1  ZINC000534799364    0.0800
      7 C7          0.6968    2.9384   43.8736 C.ar    1  ZINC000534799364    0.0300
      8 N8          0.5608    2.1663   45.0299 N.3     1  ZINC000534799364   -0.5000
      9 C9         -0.7926    2.2894   45.5892 C.3     1  ZINC000534799364    0.0600
     10 C10        -0.9248    1.3698   46.8054 C.3     1  ZINC000534799364    0.0600
     11 N11         0.0898    1.7338   47.8042 N.3     1  ZINC000534799364   -0.5300
     12 C12        -0.0532    0.9219   49.0201 C.3     1  ZINC000534799364    0.1400
     13 C13        -1.2183    1.4304   49.8294 C.2     1  ZINC000534799364    0.1100
     14 N14        -2.4309    0.9403   49.8182 N.2     1  ZINC000534799364   -0.2800
     15 N15        -3.2142    1.6896   50.7041 N.pl3   1  ZINC000534799364   -0.3100
     16 C16        -4.5739    1.4841   50.9800 C.ar    1  ZINC000534799364    0.1500
     17 C17        -5.1600    2.0954   52.0800 C.ar    1  ZINC000534799364   -0.1000
     18 C18        -6.4990    1.8919   52.3500 C.ar    1  ZINC000534799364   -0.1300
     19 C19        -7.2569    1.0786   51.5243 C.ar    1  ZINC000534799364    0.1000
     20 F20        -8.5667    0.8809   51.7898 F       1  ZINC000534799364   -0.1300
     21 C21        -6.6739    0.4679   50.4265 C.ar    1  ZINC000534799364   -0.1300
     22 C22        -5.3366    0.6737   50.1500 C.ar    1  ZINC000534799364   -0.0800
     23 C23        -2.4264    2.6483   51.2479 C.2     1  ZINC000534799364    0.0500
     24 C24        -1.1870    2.5061   50.7280 C.2     1  ZINC000534799364   -0.2200
     25 C25        -0.2560    3.5536   51.3000 C.3     1  ZINC000534799364   -0.0400
     26 C26        -1.1858    4.6244   51.9111 C.3     1  ZINC000534799364   -0.1200
     27 C27        -2.4567    3.8033   52.2251 C.3     1  ZINC000534799364   -0.0500
     28 C28         1.4432    1.6107   47.2449 C.3     1  ZINC000534799364    0.0600
     29 C29         1.5754    2.5304   46.0287 C.3     1  ZINC000534799364    0.0600
     30 H30         1.4545    0.3588   42.5644 H       1  ZINC000534799364    0.0800
     31 H31         3.0080    1.1431   42.1907 H       1  ZINC000534799364    0.0600
     32 H32         2.4908    0.9543   43.8834 H       1  ZINC000534799364    0.0800
     33 H33         2.1464    2.9553   40.8278 H       1  ZINC000534799364    0.1400
     34 H34         0.9974    5.1315   40.7823 H       1  ZINC000534799364    0.1600
     35 H35        -0.5096    4.5482   44.6043 H       1  ZINC000534799364    0.1500
     36 H36        -0.9681    3.3215   45.8930 H       1  ZINC000534799364    0.0500
     37 H37        -1.5253    2.0025   44.8349 H       1  ZINC000534799364    0.0800
     38 H38        -1.9185    1.4810   47.2392 H       1  ZINC000534799364    0.0900
     39 H39        -0.7763    0.3350   46.4966 H       1  ZINC000534799364    0.0500
     40 H40        -0.2287   -0.1179   48.7440 H       1  ZINC000534799364    0.1000
     41 H41         0.8589    0.9915   49.6128 H       1  ZINC000534799364    0.0500
     42 H42        -4.5691    2.7295   52.7244 H       1  ZINC000534799364    0.1400
     43 H43        -6.9552    2.3670   53.2059 H       1  ZINC000534799364    0.1500
     44 H44        -7.2665   -0.1664   49.7839 H       1  ZINC000534799364    0.1500
     45 H45        -4.8823    0.1976   49.2937 H       1  ZINC000534799364    0.1400
     46 H46         0.3771    3.1164   52.0721 H       1  ZINC000534799364    0.0800
     47 H47         0.3553    3.9890   50.5096 H       1  ZINC000534799364    0.0700
     48 H48        -0.7562    5.0384   52.8233 H       1  ZINC000534799364    0.0800
     49 H49        -1.3980    5.4133   51.1895 H       1  ZINC000534799364    0.0800
     50 H50        -3.3485    4.4090   52.0645 H       1  ZINC000534799364    0.0800
     51 H51        -2.4268    3.4364   53.2511 H       1  ZINC000534799364    0.0900
     52 H52         2.1759    1.8977   47.9992 H       1  ZINC000534799364    0.0900
     53 H53         1.6186    0.5787   46.9412 H       1  ZINC000534799364    0.0500
     54 H54         2.5691    2.4191   45.5949 H       1  ZINC000534799364    0.0800
     55 H55         1.4268    3.5651   46.3374 H       1  ZINC000534799364    0.0500
@<TRIPOS>BOND
     1     1     2    1
     2     1    30    1
     3     1    31    1
     4     1    32    1
     5     2     7   ar
     6     2     3   ar
     7     3     4   ar
     8     3    33    1
     9     4     5   ar
    10     4    34    1
    11     5     6   ar
    12     6     7   ar
    13     6    35    1
    14     7     8    1
    15     8    29    1
    16     8     9    1
    17     9    10    1
    18     9    36    1
    19     9    37    1
    20    10    11    1
    21    10    38    1
    22    10    39    1
    23    11    12    1
    24    11    28    1
    25    12    13    1
    26    12    40    1
    27    12    41    1
    28    13    24    1
    29    13    14    2
    30    14    15    1
    31    15    16    1
    32    15    23    1
    33    16    22   ar
    34    16    17   ar
    35    17    18   ar
    36    17    42    1
    37    18    19   ar
    38    18    43    1
    39    19    20    1
    40    19    21   ar
    41    21    22   ar
    42    21    44    1
    43    22    45    1
    44    23    27    1
    45    23    24    2
    46    24    25    1
    47    25    26    1
    48    25    46    1
    49    25    47    1
    50    26    27    1
    51    26    48    1
    52    26    49    1
    53    27    50    1
    54    27    51    1
    55    28    29    1
    56    28    52    1
    57    28    53    1
    58    29    54    1
    59    29    55    1
@<TRIPOS>SUBSTRUCTURE
     1 ZINC000534799364        1 TEMP              0 ****  ****    0 ROOT


##########                                Name:    ZINC000826435081
##########                DOCK_Rotatable_Bonds:                   7
##########                         Heavy_Atoms:                  28
##########                    Molecular_Weight:             388.361
##########                DOCK_Rotatable_Bonds:                   7
##########                       Formal_Charge:           0.0099996
##########                     HBond_Acceptors:                  12
##########                        HBond_Donors:                   3
##########                         Heavy_Atoms:                  28
##########                          Grid_Score:          -34.171829
##########                     Grid_vdw_energy:          -33.196560
##########                      Grid_es_energy:           -0.975270
##########           Internal_energy_repulsive:           11.950788

@<TRIPOS>MOLECULE
ZINC000826435081
 45 48 1 0 0
SMALL
USER_CHARGES


@<TRIPOS>ATOM
      1 O1         -3.3055    1.4183   49.0954 O.2     1  ZINC000826435081   -0.5700
      2 C2         -3.2069    1.4508   50.3069 C.2     1  ZINC000826435081    0.7200
      3 N3         -4.1371    0.8501   51.0751 N.am    1  ZINC000826435081   -0.7300
      4 C4         -5.2705    0.1632   50.4507 C.3     1  ZINC000826435081    0.1500
      5 C5         -6.5276    1.0242   50.5887 C.3     1  ZINC000826435081    0.0400
      6 H6         -7.3430    0.5713   50.0246 H       1  ZINC000826435081    0.0800
      7 C7         -6.2482    2.4288   50.0462 C.3     1  ZINC000826435081    0.0300
      8 O8         -7.3902    3.2583   50.2804 O.3     1  ZINC000826435081   -0.3800
      9 C9         -7.7562    3.3524   51.6603 C.3     1  ZINC000826435081    0.0200
     10 C10        -8.0358    1.9478   52.2029 C.3     1  ZINC000826435081    0.0200
     11 O11        -6.8947    1.1171   51.9685 O.3     1  ZINC000826435081   -0.3700
     12 N12        -2.1642    2.0827   50.8813 N.am    1  ZINC000826435081   -0.6400
     13 C13        -1.1970    2.7072   50.0826 C.2     1  ZINC000826435081    0.3300
     14 N14        -1.4301    3.4038   48.9951 N.2     1  ZINC000826435081   -0.2800
     15 N15        -0.2031    3.8571   48.4941 N.pl3   1  ZINC000826435081   -0.3300
     16 C16        -0.0197    4.6353   47.3456 C.ar    1  ZINC000826435081    0.2200
     17 C17         0.0599    6.0162   47.4460 C.ar    1  ZINC000826435081   -0.1300
     18 C18         0.2409    6.7843   46.3115 C.ar    1  ZINC000826435081   -0.0500
     19 C19         0.3435    6.1833   45.0700 C.ar    1  ZINC000826435081   -0.1500
     20 C20         0.2660    4.8074   44.9537 C.ar    1  ZINC000826435081    0.1500
     21 F21         0.3671    4.2243   43.7393 F       1  ZINC000826435081   -0.1100
     22 C22         0.0897    4.0226   46.0926 C.ar    1  ZINC000826435081   -0.0500
     23 C23         0.0059    2.5462   45.9748 C.2     1  ZINC000826435081    0.2100
     24 N24         0.9682    1.6802   46.2247 N.2     1  ZINC000826435081   -0.2800
     25 N25         0.5024    0.4989   46.0047 N.pl3   1  ZINC000826435081   -0.2300
     26 N26        -0.7239    0.5886   45.6237 N.2     1  ZINC000826435081   -0.0500
     27 N27        -1.0652    1.8322   45.5992 N.2     1  ZINC000826435081   -0.2300
     28 C28         0.7772    3.4079   49.3198 C.2     1  ZINC000826435081    0.0700
     29 C29         0.1889    2.7009   50.3112 C.2     1  ZINC000826435081   -0.2400
     30 H30        -4.0562    0.8725   52.0415 H       1  ZINC000826435081    0.4000
     31 H31        -5.0578   -0.0027   49.3946 H       1  ZINC000826435081    0.0800
     32 H32        -5.4309   -0.7956   50.9440 H       1  ZINC000826435081    0.0900
     33 H33        -5.3814    2.8501   50.5552 H       1  ZINC000826435081    0.0700
     34 H34        -6.0517    2.3733   48.9755 H       1  ZINC000826435081    0.1100
     35 H35        -6.9401    3.8047   52.2237 H       1  ZINC000826435081    0.0600
     36 H36        -8.6519    3.9657   51.7586 H       1  ZINC000826435081    0.1100
     37 H37        -8.2322    2.0033   53.2736 H       1  ZINC000826435081    0.1100
     38 H38        -8.9025    1.5265   51.6938 H       1  ZINC000826435081    0.0600
     39 H39        -2.0833    2.1052   51.8476 H       1  ZINC000826435081    0.4100
     40 H40        -0.0201    6.4920   48.4122 H       1  ZINC000826435081    0.1500
     41 H41         0.3023    7.8594   46.3948 H       1  ZINC000826435081    0.1500
     42 H42         0.4842    6.7908   44.1882 H       1  ZINC000826435081    0.1500
     43 H43         0.9981   -0.3282   46.1098 H       1  ZINC000826435081    0.4800
     44 H44         1.8363    3.5873   49.2076 H       1  ZINC000826435081    0.1800
     45 H45         0.6957    2.2115   51.1297 H       1  ZINC000826435081    0.1800
@<TRIPOS>BOND
     1     1     2    2
     2     2     3   am
     3     2    12   am
     4     3     4    1
     5     3    30    1
     6     4     5    1
     7     4    31    1
     8     4    32    1
     9     5     6    1
    10     5    11    1
    11     5     7    1
    12     7     8    1
    13     7    33    1
    14     7    34    1
    15     8     9    1
    16     9    10    1
    17     9    35    1
    18     9    36    1
    19    10    11    1
    20    10    37    1
    21    10    38    1
    22    12    13    1
    23    12    39    1
    24    13    29    1
    25    13    14    2
    26    14    15    1
    27    15    16    1
    28    15    28    1
    29    16    22   ar
    30    16    17   ar
    31    17    18   ar
    32    17    40    1
    33    18    19   ar
    34    18    41    1
    35    19    20   ar
    36    19    42    1
    37    20    21    1
    38    20    22   ar
    39    22    23    1
    40    23    27    1
    41    23    24    2
    42    24    25    1
    43    25    26    1
    44    25    43    1
    45    26    27    2
    46    28    29    2
    47    28    44    1
    48    29    45    1
@<TRIPOS>SUBSTRUCTURE
     1 ZINC000826435081        1 TEMP              0 ****  ****    0 ROOT


##########                                Name:    ZINC000537799672
##########                DOCK_Rotatable_Bonds:                   9
##########                         Heavy_Atoms:                  29
##########                    Molecular_Weight:             401.478
##########                DOCK_Rotatable_Bonds:                   9
##########                       Formal_Charge:        -4.47035e-07
##########                     HBond_Acceptors:                   6
##########                        HBond_Donors:                   1
##########                         Heavy_Atoms:                  29
##########                          Grid_Score:          -34.168045
##########                     Grid_vdw_energy:          -33.609695
##########                      Grid_es_energy:           -0.558349
##########           Internal_energy_repulsive:           16.372187

@<TRIPOS>MOLECULE
ZINC000537799672
 57 59 1 0 0
SMALL
USER_CHARGES


@<TRIPOS>ATOM
      1 C1         -0.1448    4.7582   45.0012 C.3     1  ZINC000537799672    0.0300
      2 O2          0.8460    3.7473   45.1979 O.3     1  ZINC000537799672   -0.3800
      3 C3          0.5145    2.4868   44.6122 C.3     1  ZINC000537799672    0.1200
      4 H4         -0.4154    2.5800   44.0514 H       1  ZINC000537799672    0.0900
      5 C5          1.6208    2.0583   43.6828 C.ar    1  ZINC000537799672   -0.1300
      6 C6          1.8227    0.7158   43.4221 C.ar    1  ZINC000537799672   -0.0600
      7 C7          2.8369    0.3217   42.5700 C.ar    1  ZINC000537799672   -0.1500
      8 C8          3.6508    1.2721   41.9772 C.ar    1  ZINC000537799672    0.1000
      9 F9          4.6423    0.8879   41.1438 F       1  ZINC000537799672   -0.1400
     10 C10         3.4474    2.6165   42.2388 C.ar    1  ZINC000537799672   -0.1500
     11 C11         2.4295    3.0085   43.0874 C.ar    1  ZINC000537799672   -0.0800
     12 C12         0.3420    1.4411   45.7157 C.3     1  ZINC000537799672    0.1600
     13 H13         1.2173    0.7921   45.7414 H       1  ZINC000537799672    0.1000
     14 C14        -0.9064    0.6029   45.4332 C.3     1  ZINC000537799672   -0.1600
     15 N15         0.1955    2.1148   47.0083 N.am    1  ZINC000537799672   -0.7100
     16 C16         0.6057    1.5034   48.1371 C.2     1  ZINC000537799672    0.5600
     17 O17         1.0985    0.3937   48.0827 O.2     1  ZINC000537799672   -0.5400
     18 C18         0.4563    2.1826   49.4419 C.ar    1  ZINC000537799672   -0.1400
     19 C19         1.5097    2.9333   49.9659 C.ar    1  ZINC000537799672   -0.0800
     20 C20         1.3636    3.5650   51.1838 C.ar    1  ZINC000537799672   -0.1300
     21 C21         0.1764    3.4553   51.8854 C.ar    1  ZINC000537799672   -0.0900
     22 C22        -0.8719    2.7122   51.3717 C.ar    1  ZINC000537799672   -0.1100
     23 C23        -0.7410    2.0807   50.1523 C.ar    1  ZINC000537799672   -0.0300
     24 C24        -1.8838    1.2722   49.5941 C.3     1  ZINC000537799672    0.1100
     25 O25        -2.8030    0.9598   50.6426 O.3     1  ZINC000537799672   -0.3800
     26 C26        -4.1639    1.2672   50.3332 C.3     1  ZINC000537799672    0.0900
     27 C27        -5.0452    0.0512   50.6348 C.3     1  ZINC000537799672   -0.1800
     28 C28        -6.5094    0.4150   50.3754 C.3     1  ZINC000537799672    0.0600
     29 O29        -6.8698    1.5386   51.1813 O.3     1  ZINC000537799672   -0.3800
     30 C30        -6.1107    2.7187   50.9100 C.3     1  ZINC000537799672    0.0600
     31 C31        -4.6304    2.4474   51.1909 C.3     1  ZINC000537799672   -0.1500
     32 H32        -1.1048    4.4037   45.3764 H       1  ZINC000537799672    0.0500
     33 H33         0.1450    5.6606   45.5395 H       1  ZINC000537799672    0.0900
     34 H34        -0.2302    4.9811   43.9377 H       1  ZINC000537799672    0.0400
     35 H35         1.1877   -0.0253   43.8846 H       1  ZINC000537799672    0.1300
     36 H36         2.9948   -0.7273   42.3670 H       1  ZINC000537799672    0.1400
     37 H37         4.0818    3.3586   41.7771 H       1  ZINC000537799672    0.1400
     38 H38         2.2704    4.0570   43.2913 H       1  ZINC000537799672    0.1300
     39 H39        -0.8393    0.1773   44.4319 H       1  ZINC000537799672    0.0700
     40 H40        -0.9776   -0.2012   46.1657 H       1  ZINC000537799672    0.0600
     41 H41        -1.7916    1.2352   45.5006 H       1  ZINC000537799672    0.0700
     42 H42        -0.1967    3.0010   47.0517 H       1  ZINC000537799672    0.4000
     43 H43         2.4373    3.0191   49.4195 H       1  ZINC000537799672    0.1300
     44 H44         2.1781    4.1463   51.5904 H       1  ZINC000537799672    0.1300
     45 H45         0.0673    3.9515   52.8384 H       1  ZINC000537799672    0.1300
     46 H46        -1.7959    2.6301   51.9245 H       1  ZINC000537799672    0.1400
     47 H47        -2.3945    1.8491   48.8230 H       1  ZINC000537799672    0.0800
     48 H48        -1.4984    0.3489   49.1616 H       1  ZINC000537799672    0.0800
     49 H49        -4.2481    1.5274   49.2780 H       1  ZINC000537799672    0.0600
     50 H50        -4.7558   -0.7777   49.9888 H       1  ZINC000537799672    0.0800
     51 H51        -4.9213   -0.2387   51.6782 H       1  ZINC000537799672    0.0800
     52 H52        -6.6407    0.6656   49.3227 H       1  ZINC000537799672    0.0500
     53 H53        -7.1452   -0.4333   50.6292 H       1  ZINC000537799672    0.1000
     54 H54        -6.2367    2.9995   49.8643 H       1  ZINC000537799672    0.0500
     55 H55        -6.4592    3.5301   51.5489 H       1  ZINC000537799672    0.1000
     56 H56        -4.4982    2.2059   52.2456 H       1  ZINC000537799672    0.0800
     57 H57        -4.0444    3.3323   50.9425 H       1  ZINC000537799672    0.0800
@<TRIPOS>BOND
     1     1     2    1
     2     1    32    1
     3     1    33    1
     4     1    34    1
     5     2     3    1
     6     3     4    1
     7     3     5    1
     8     3    12    1
     9     5    11   ar
    10     5     6   ar
    11     6     7   ar
    12     6    35    1
    13     7     8   ar
    14     7    36    1
    15     8     9    1
    16     8    10   ar
    17    10    11   ar
    18    10    37    1
    19    11    38    1
    20    12    13    1
    21    12    14    1
    22    12    15    1
    23    14    39    1
    24    14    40    1
    25    14    41    1
    26    15    16   am
    27    15    42    1
    28    16    17    2
    29    16    18    1
    30    18    23   ar
    31    18    19   ar
    32    19    20   ar
    33    19    43    1
    34    20    21   ar
    35    20    44    1
    36    21    22   ar
    37    21    45    1
    38    22    23   ar
    39    22    46    1
    40    23    24    1
    41    24    25    1
    42    24    47    1
    43    24    48    1
    44    25    26    1
    45    26    31    1
    46    26    27    1
    47    26    49    1
    48    27    28    1
    49    27    50    1
    50    27    51    1
    51    28    29    1
    52    28    52    1
    53    28    53    1
    54    29    30    1
    55    30    31    1
    56    30    54    1
    57    30    55    1
    58    31    56    1
    59    31    57    1
@<TRIPOS>SUBSTRUCTURE
     1 ZINC000537799672        1 TEMP              0 ****  ****    0 ROOT


##########                                Name:    ZINC000482187991
##########                DOCK_Rotatable_Bonds:                  11
##########                         Heavy_Atoms:                  29
##########                    Molecular_Weight:             407.414
##########                DOCK_Rotatable_Bonds:                  11
##########                       Formal_Charge:           0.0299996
##########                     HBond_Acceptors:                   8
##########                        HBond_Donors:                   1
##########                         Heavy_Atoms:                  29
##########                          Grid_Score:          -34.090096
##########                     Grid_vdw_energy:          -31.908815
##########                      Grid_es_energy:           -2.181280
##########           Internal_energy_repulsive:           11.800554

@<TRIPOS>MOLECULE
ZINC000482187991
 52 53 1 0 0
SMALL
USER_CHARGES


@<TRIPOS>ATOM
      1 C1         -1.1586    1.0432   49.0895 C.3     1  ZINC000482187991    0.0200
      2 O2         -2.2211    0.6515   49.9612 O.3     1  ZINC000482187991   -0.3000
      3 C3         -2.7979    1.6296   50.7097 C.ar    1  ZINC000482187991    0.1400
      4 C4         -2.0105    2.4683   51.4740 C.ar    1  ZINC000482187991   -0.1700
      5 C5         -2.6053    3.4751   52.2438 C.ar    1  ZINC000482187991   -0.1000
      6 C6         -1.7714    4.3692   53.0575 C.2     1  ZINC000482187991    0.4000
      7 O7         -0.9610    5.0963   52.5228 O.2     1  ZINC000482187991   -0.4500
      8 C8         -1.9226    4.3834   54.5569 C.3     1  ZINC000482187991   -0.1500
      9 C9         -0.6598    3.8093   55.2023 C.3     1  ZINC000482187991   -0.1300
     10 C10        -0.9471    3.4524   56.6379 C.2     1  ZINC000482187991    0.5200
     11 O11        -1.8375    4.0176   57.2368 O.2     1  ZINC000482187991   -0.5200
     12 N12        -0.2146    2.5052   57.2565 N.am    1  ZINC000482187991   -0.7200
     13 C13        -0.4928    2.1595   58.6527 C.3     1  ZINC000482187991    0.1500
     14 H14        -1.5631    1.9972   58.7804 H       1  ZINC000482187991    0.1300
     15 C15        -0.0454    3.2862   59.5479 C.ar    1  ZINC000482187991   -0.1100
     16 C16        -0.7893    3.6191   60.6644 C.ar    1  ZINC000482187991   -0.1000
     17 C17        -0.3790    4.6526   61.4855 C.ar    1  ZINC000482187991   -0.1200
     18 C18         0.7756    5.3532   61.1902 C.ar    1  ZINC000482187991   -0.1100
     19 C19         1.5200    5.0198   60.0741 C.ar    1  ZINC000482187991   -0.1200
     20 C20         1.1119    3.9834   59.2554 C.ar    1  ZINC000482187991   -0.1000
     21 C21         0.2645    0.8826   59.0226 C.3     1  ZINC000482187991    0.2500
     22 F22         1.6389    1.0953   58.8714 F       1  ZINC000482187991   -0.1900
     23 F23        -0.0117    0.5451   60.3519 F       1  ZINC000482187991   -0.2000
     24 C24        -3.9970    3.6280   52.2357 C.ar    1  ZINC000482187991   -0.1900
     25 C25        -4.7780    2.7854   51.4689 C.ar    1  ZINC000482187991    0.1400
     26 O26        -6.1299    2.9333   51.4599 O.3     1  ZINC000482187991   -0.3000
     27 C27        -6.8143    2.7171   52.6955 C.3     1  ZINC000482187991    0.0200
     28 C28        -4.1821    1.7880   50.7000 C.ar    1  ZINC000482187991    0.0600
     29 O29        -4.9534    0.9616   49.9467 O.3     1  ZINC000482187991   -0.3100
     30 C30        -5.5606   -0.1463   50.6143 C.3     1  ZINC000482187991    0.0400
     31 H31        -0.7886    0.1698   48.5525 H       1  ZINC000482187991    0.1100
     32 H32        -1.5273    1.7796   48.3754 H       1  ZINC000482187991    0.0600
     33 H33        -0.3496    1.4790   49.6758 H       1  ZINC000482187991    0.0600
     34 H34        -0.9373    2.3472   51.4781 H       1  ZINC000482187991    0.1500
     35 H35        -2.0709    5.4082   54.8974 H       1  ZINC000482187991    0.1100
     36 H36        -2.7833    3.7780   54.8410 H       1  ZINC000482187991    0.1100
     37 H37        -0.3492    2.9156   54.6609 H       1  ZINC000482187991    0.1000
     38 H38         0.1372    4.5519   55.1651 H       1  ZINC000482187991    0.1000
     39 H39         0.4968    2.0522   56.7772 H       1  ZINC000482187991    0.4100
     40 H40        -1.6913    3.0717   60.8951 H       1  ZINC000482187991    0.1200
     41 H41        -0.9605    4.9131   62.3575 H       1  ZINC000482187991    0.1300
     42 H42         1.0959    6.1612   61.8313 H       1  ZINC000482187991    0.1300
     43 H43         2.4218    5.5674   59.8432 H       1  ZINC000482187991    0.1300
     44 H44         1.6935    3.7230   58.3835 H       1  ZINC000482187991    0.1300
     45 H45        -0.0517    0.0702   58.3683 H       1  ZINC000482187991    0.1200
     46 H46        -4.4593    4.4033   52.8285 H       1  ZINC000482187991    0.1500
     47 H47        -6.6334    1.6980   53.0377 H       1  ZINC000482187991    0.0600
     48 H48        -6.4476    3.4215   53.4422 H       1  ZINC000482187991    0.0600
     49 H49        -7.8841    2.8667   52.5493 H       1  ZINC000482187991    0.1100
     50 H50        -4.7855   -0.7805   51.0446 H       1  ZINC000482187991    0.0500
     51 H51        -6.2122    0.2201   51.4077 H       1  ZINC000482187991    0.0500
     52 H52        -6.1474   -0.7238   49.8999 H       1  ZINC000482187991    0.1000
@<TRIPOS>BOND
     1     1     2    1
     2     1    31    1
     3     1    32    1
     4     1    33    1
     5     2     3    1
     6     3    28   ar
     7     3     4   ar
     8     4     5   ar
     9     4    34    1
    10     5     6    1
    11     5    24   ar
    12     6     7    2
    13     6     8    1
    14     8     9    1
    15     8    35    1
    16     8    36    1
    17     9    10    1
    18     9    37    1
    19     9    38    1
    20    10    11    2
    21    10    12   am
    22    12    13    1
    23    12    39    1
    24    13    14    1
    25    13    15    1
    26    13    21    1
    27    15    20   ar
    28    15    16   ar
    29    16    17   ar
    30    16    40    1
    31    17    18   ar
    32    17    41    1
    33    18    19   ar
    34    18    42    1
    35    19    20   ar
    36    19    43    1
    37    20    44    1
    38    21    22    1
    39    21    23    1
    40    21    45    1
    41    24    25   ar
    42    24    46    1
    43    25    26    1
    44    25    28   ar
    45    26    27    1
    46    27    47    1
    47    27    48    1
    48    27    49    1
    49    28    29    1
    50    29    30    1
    51    30    50    1
    52    30    51    1
    53    30    52    1
@<TRIPOS>SUBSTRUCTURE
     1 ZINC000482187991        1 TEMP              0 ****  ****    0 ROOT


##########                                Name:    ZINC001573443776
##########                DOCK_Rotatable_Bonds:                   8
##########                         Heavy_Atoms:                  28
##########                    Molecular_Weight:             386.457
##########                DOCK_Rotatable_Bonds:                   8
##########                       Formal_Charge:          0.00999954
##########                     HBond_Acceptors:                  10
##########                        HBond_Donors:                   3
##########                         Heavy_Atoms:                  28
##########                          Grid_Score:          -34.076153
##########                     Grid_vdw_energy:          -32.808510
##########                      Grid_es_energy:           -1.267642
##########           Internal_energy_repulsive:           39.611454

@<TRIPOS>MOLECULE
ZINC001573443776
 54 56 1 0 0
SMALL
USER_CHARGES


@<TRIPOS>ATOM
      1 C1          0.0448    7.8501   41.7774 C.3     1  ZINC001573443776   -0.1800
      2 C2          0.0555    7.3127   43.1853 C.2     1  ZINC001573443776    0.5100
      3 O3         -0.5700    7.8802   44.0558 O.2     1  ZINC001573443776   -0.5400
      4 N4          0.7602    6.2016   43.4770 N.am    1  ZINC001573443776   -0.6100
      5 C5          1.5229    5.5032   42.4332 C.3     1  ZINC001573443776    0.1100
      6 C6          1.1033    4.0299   42.4183 C.3     1  ZINC001573443776   -0.1300
      7 C7          1.2727    3.4412   43.8207 C.3     1  ZINC001573443776   -0.1000
      8 C8          0.3695    4.1906   44.8029 C.3     1  ZINC001573443776   -0.1200
      9 H9         -0.6675    4.1112   44.4769 H       1  ZINC001573443776    0.1000
     10 C10         0.5123    3.5887   46.1771 C.2     1  ZINC001573443776    0.5200
     11 O11         1.5612    3.0790   46.5099 O.2     1  ZINC001573443776   -0.5300
     12 N12        -0.5259    3.6168   47.0362 N.am    1  ZINC001573443776   -0.7300
     13 C13        -0.3866    3.0332   48.3727 C.3     1  ZINC001573443776    0.1100
     14 C14        -1.0189    1.6400   48.3892 C.3     1  ZINC001573443776    0.1400
     15 H15        -1.9502    1.6570   47.8233 H       1  ZINC001573443776    0.0900
     16 C16        -0.0550    0.6350   47.7553 C.3     1  ZINC001573443776   -0.1700
     17 N17        -1.2953    1.2456   49.7728 N.pl3   1  ZINC001573443776   -0.7200
     18 C18        -2.5328    1.5227   50.3400 C.ar    1  ZINC001573443776    0.4300
     19 C19        -2.7159    2.7097   51.0434 C.ar    1  ZINC001573443776   -0.2500
     20 C20        -3.9494    2.9778   51.6039 C.ar    1  ZINC001573443776    0.0100
     21 C21        -4.9729    2.0383   51.4407 C.ar    1  ZINC001573443776   -0.1400
     22 C22        -6.3163    2.2804   52.0235 C.2     1  ZINC001573443776    0.2400
     23 N23        -7.4222    2.5610   51.3631 N.2     1  ZINC001573443776   -0.3000
     24 N24        -8.3713    2.6993   52.2238 N.pl3   1  ZINC001573443776   -0.2300
     25 N25        -7.9020    2.5152   53.4084 N.2     1  ZINC001573443776   -0.0500
     26 N26        -6.6425    2.2505   53.3235 N.2     1  ZINC001573443776   -0.2700
     27 C27        -4.7145    0.8737   50.7239 C.ar    1  ZINC001573443776    0.2300
     28 C28        -5.8080   -0.1469   50.5404 C.3     1  ZINC001573443776   -0.1200
     29 N29        -3.5251    0.6563   50.1998 N.ar    1  ZINC001573443776   -0.5400
     30 C30         0.7853    5.6689   44.8461 C.3     1  ZINC001573443776    0.1200
     31 H31         0.8117    8.6181   41.6758 H       1  ZINC001573443776    0.0900
     32 H32         0.2472    7.0396   41.0775 H       1  ZINC001573443776    0.0800
     33 H33        -0.9324    8.2817   41.5608 H       1  ZINC001573443776    0.1000
     34 H34         1.3114    5.9532   41.4632 H       1  ZINC001573443776    0.1000
     35 H35         2.5889    5.5774   42.6481 H       1  ZINC001573443776    0.0700
     36 H36         0.0593    3.9520   42.1146 H       1  ZINC001573443776    0.0700
     37 H37         1.7292    3.4805   41.7150 H       1  ZINC001573443776    0.0800
     38 H38         0.9982    2.3864   43.8074 H       1  ZINC001573443776    0.0800
     39 H39         2.3119    3.5418   44.1337 H       1  ZINC001573443776    0.0700
     40 H40        -1.3652    4.0234   46.7697 H       1  ZINC001573443776    0.4000
     41 H41         0.6705    2.9555   48.6270 H       1  ZINC001573443776    0.0900
     42 H42        -0.8897    3.6692   49.1012 H       1  ZINC001573443776    0.0800
     43 H43         0.1507    0.9285   46.7259 H       1  ZINC001573443776    0.0700
     44 H44         0.8763    0.6180   48.3214 H       1  ZINC001573443776    0.0700
     45 H45        -0.5055   -0.3575   47.7670 H       1  ZINC001573443776    0.0700
     46 H46        -0.6143    0.7911   50.2929 H       1  ZINC001573443776    0.4100
     47 H47        -1.9029    3.4126   51.1500 H       1  ZINC001573443776    0.1400
     48 H48        -4.1195    3.8908   52.1552 H       1  ZINC001573443776    0.1400
     49 H49        -9.2944    2.9093   52.0124 H       1  ZINC001573443776    0.4800
     50 H50        -6.3636    0.0756   49.6294 H       1  ZINC001573443776    0.0800
     51 H51        -5.3679   -1.1411   50.4638 H       1  ZINC001573443776    0.0800
     52 H52        -6.4835   -0.1135   51.3952 H       1  ZINC001573443776    0.1100
     53 H53         1.7907    5.7539   45.2586 H       1  ZINC001573443776    0.0800
     54 H54         0.0850    6.2275   45.4670 H       1  ZINC001573443776    0.0900
@<TRIPOS>BOND
     1     1     2    1
     2     1    31    1
     3     1    32    1
     4     1    33    1
     5     2     3    2
     6     2     4   am
     7     4    30    1
     8     4     5    1
     9     5     6    1
    10     5    34    1
    11     5    35    1
    12     6     7    1
    13     6    36    1
    14     6    37    1
    15     7     8    1
    16     7    38    1
    17     7    39    1
    18     8     9    1
    19     8    10    1
    20     8    30    1
    21    10    11    2
    22    10    12   am
    23    12    13    1
    24    12    40    1
    25    13    14    1
    26    13    41    1
    27    13    42    1
    28    14    15    1
    29    14    16    1
    30    14    17    1
    31    16    43    1
    32    16    44    1
    33    16    45    1
    34    17    18    1
    35    17    46    1
    36    18    29   ar
    37    18    19   ar
    38    19    20   ar
    39    19    47    1
    40    20    21   ar
    41    20    48    1
    42    21    22    1
    43    21    27   ar
    44    22    26    1
    45    22    23    2
    46    23    24    1
    47    24    25    1
    48    24    49    1
    49    25    26    2
    50    27    28    1
    51    27    29   ar
    52    28    50    1
    53    28    51    1
    54    28    52    1
    55    30    53    1
    56    30    54    1
@<TRIPOS>SUBSTRUCTURE
     1 ZINC001573443776        1 TEMP              0 ****  ****    0 ROOT


##########                                Name:    ZINC001045438664
##########                DOCK_Rotatable_Bonds:                   6
##########                         Heavy_Atoms:                  26
##########                    Molecular_Weight:             352.439
##########                DOCK_Rotatable_Bonds:                   6
##########                       Formal_Charge:          -0.0099999
##########                     HBond_Acceptors:                   7
##########                        HBond_Donors:                   2
##########                         Heavy_Atoms:                  26
##########                          Grid_Score:          -34.066818
##########                     Grid_vdw_energy:          -33.987858
##########                      Grid_es_energy:           -0.078959
##########           Internal_energy_repulsive:           21.396950

@<TRIPOS>MOLECULE
ZINC001045438664
 50 53 1 0 0
SMALL
USER_CHARGES


@<TRIPOS>ATOM
      1 C1         -2.0303    4.2761   52.1986 C.3     1  ZINC001045438664   -0.1100
      2 C2         -2.3624    3.0237   51.4289 C.ar    1  ZINC001045438664    0.2100
      3 C3         -1.4197    2.4375   50.6079 C.ar    1  ZINC001045438664   -0.3000
      4 C4         -1.7735    1.2776   49.9149 C.ar    1  ZINC001045438664    0.4500
      5 N5         -0.8631    0.6516   49.0793 N.pl3   1  ZINC001045438664   -0.7100
      6 C6         -0.1002    1.4382   48.1068 C.3     1  ZINC001045438664    0.1500
      7 H7          0.1742    2.3958   48.5493 H       1  ZINC001045438664    0.0900
      8 C8         -0.9559    1.6783   46.8615 C.3     1  ZINC001045438664   -0.1300
      9 C9         -0.1593    2.4998   45.8459 C.3     1  ZINC001045438664   -0.1200
     10 C10         1.1079    1.7370   45.4547 C.3     1  ZINC001045438664   -0.1200
     11 C11         1.9637    1.4968   46.7001 C.3     1  ZINC001045438664   -0.1300
     12 C12         1.1670    0.6753   47.7156 C.3     1  ZINC001045438664    0.1400
     13 H13         0.8926   -0.2822   47.2731 H       1  ZINC001045438664    0.1000
     14 N14         1.9863    0.4454   48.9080 N.am    1  ZINC001045438664   -0.7200
     15 C15         2.4141    1.4906   49.6436 C.2     1  ZINC001045438664    0.5700
     16 O16         2.1212    2.6242   49.3167 O.2     1  ZINC001045438664   -0.5200
     17 C17         3.2394    1.2585   50.8479 C.ar    1  ZINC001045438664   -0.2500
     18 C18         3.4221    2.2674   51.8004 C.ar    1  ZINC001045438664    0.1900
     19 N19         4.1675    2.0164   52.8623 N.ar    1  ZINC001045438664   -0.5200
     20 C20         4.7341    0.8376   53.0304 C.ar    1  ZINC001045438664    0.3200
     21 N21         4.5885   -0.1405   52.1580 N.ar    1  ZINC001045438664   -0.5200
     22 C22         3.8553    0.0217   51.0706 C.ar    1  ZINC001045438664    0.2100
     23 N23        -2.9981    0.7835   50.0707 N.ar    1  ZINC001045438664   -0.5800
     24 C24        -3.8664    1.3762   50.8652 C.ar    1  ZINC001045438664    0.4000
     25 C25        -5.2444    0.7849   51.0154 C.3     1  ZINC001045438664   -0.1100
     26 C26        -6.3099    1.6420   51.7018 C.3     1  ZINC001045438664   -0.1500
     27 C27        -6.3737    1.4068   50.1914 C.3     1  ZINC001045438664   -0.1500
     28 N28        -3.5616    2.4685   51.5362 N.ar    1  ZINC001045438664   -0.5600
     29 H29        -1.6153    4.0064   53.1697 H       1  ZINC001045438664    0.0800
     30 H30        -1.2995    4.8621   51.6412 H       1  ZINC001045438664    0.0800
     31 H31        -2.9359    4.8656   52.3415 H       1  ZINC001045438664    0.0800
     32 H32        -0.4336    2.8654   50.5038 H       1  ZINC001045438664    0.1400
     33 H33        -0.7308   -0.3076   49.1380 H       1  ZINC001045438664    0.4100
     34 H34        -1.2304    0.7208   46.4190 H       1  ZINC001045438664    0.0700
     35 H35        -1.8588    2.2219   47.1403 H       1  ZINC001045438664    0.0700
     36 H36        -0.7688    2.6709   44.9587 H       1  ZINC001045438664    0.0700
     37 H37         0.1152    3.4574   46.2885 H       1  ZINC001045438664    0.0700
     38 H38         0.8336    0.7793   45.0122 H       1  ZINC001045438664    0.0700
     39 H39         1.6756    2.3222   44.7311 H       1  ZINC001045438664    0.0700
     40 H40         2.8665    0.9533   46.4212 H       1  ZINC001045438664    0.0800
     41 H41         2.2381    2.4544   47.1425 H       1  ZINC001045438664    0.0700
     42 H42         2.2211   -0.4591   49.1682 H       1  ZINC001045438664    0.4000
     43 H43         2.9617    3.2356   51.6695 H       1  ZINC001045438664    0.1700
     44 H44         5.3367    0.6679   53.9104 H       1  ZINC001045438664    0.2100
     45 H45         3.7408   -0.7841   50.3608 H       1  ZINC001045438664    0.1800
     46 H46        -5.2783   -0.2914   51.1841 H       1  ZINC001045438664    0.1300
     47 H47        -7.0450    1.1294   52.3224 H       1  ZINC001045438664    0.1000
     48 H48        -6.0143    2.6334   52.0448 H       1  ZINC001045438664    0.1100
     49 H49        -6.1200    2.2435   49.5406 H       1  ZINC001045438664    0.1000
     50 H50        -7.1506    0.7395   49.8182 H       1  ZINC001045438664    0.1000
@<TRIPOS>BOND
     1     1     2    1
     2     1    29    1
     3     1    30    1
     4     1    31    1
     5     2    28   ar
     6     2     3   ar
     7     3     4   ar
     8     3    32    1
     9     4     5    1
    10     4    23   ar
    11     5     6    1
    12     5    33    1
    13     6     7    1
    14     6    12    1
    15     6     8    1
    16     8     9    1
    17     8    34    1
    18     8    35    1
    19     9    10    1
    20     9    36    1
    21     9    37    1
    22    10    11    1
    23    10    38    1
    24    10    39    1
    25    11    12    1
    26    11    40    1
    27    11    41    1
    28    12    13    1
    29    12    14    1
    30    14    15   am
    31    14    42    1
    32    15    16    2
    33    15    17    1
    34    17    22   ar
    35    17    18   ar
    36    18    19   ar
    37    18    43    1
    38    19    20   ar
    39    20    21   ar
    40    20    44    1
    41    21    22   ar
    42    22    45    1
    43    23    24   ar
    44    24    25    1
    45    24    28   ar
    46    25    27    1
    47    25    26    1
    48    25    46    1
    49    26    27    1
    50    26    47    1
    51    26    48    1
    52    27    49    1
    53    27    50    1
@<TRIPOS>SUBSTRUCTURE
     1 ZINC001045438664        1 TEMP              0 ****  ****    0 ROOT


##########                                Name:    ZINC001191196975
##########                DOCK_Rotatable_Bonds:                  14
##########                         Heavy_Atoms:                  24
##########                    Molecular_Weight:             339.438
##########                DOCK_Rotatable_Bonds:                  14
##########                       Formal_Charge:          0.00999969
##########                     HBond_Acceptors:                   8
##########                        HBond_Donors:                   4
##########                         Heavy_Atoms:                  24
##########                          Grid_Score:          -34.030315
##########                     Grid_vdw_energy:          -32.411076
##########                      Grid_es_energy:           -1.619239
##########           Internal_energy_repulsive:           13.955860

@<TRIPOS>MOLECULE
ZINC001191196975
 53 53 1 0 0
SMALL
USER_CHARGES


@<TRIPOS>ATOM
      1 C1          4.3070   -1.0959   51.9603 C.2     1  ZINC001191196975   -0.1600
      2 C2          4.2467    0.1858   51.6968 C.2     1  ZINC001191196975   -0.1800
      3 C3          3.8900    0.6540   50.3094 C.3     1  ZINC001191196975    0.1500
      4 N4          2.4463    0.8900   50.2296 N.am    1  ZINC001191196975   -0.7300
      5 C5          1.8424    0.9716   49.0277 C.2     1  ZINC001191196975    0.5100
      6 O6          2.4937    0.8484   48.0121 O.2     1  ZINC001191196975   -0.5200
      7 C7          0.3576    1.2162   48.9456 C.3     1  ZINC001191196975    0.0300
      8 N8         -0.0152    2.2848   49.8822 N.3     1  ZINC001191196975   -0.5100
      9 C9          0.6475    3.5479   49.5306 C.3     1  ZINC001191196975    0.0200
     10 C10        -1.4736    2.4527   49.9360 C.3     1  ZINC001191196975    0.0700
     11 H11        -1.8429    2.9349   49.0309 H       1  ZINC001191196975    0.0600
     12 C12        -1.8957    3.2460   51.2008 C.3     1  ZINC001191196975   -0.1200
     13 C13        -3.3348    2.7501   51.4555 C.3     1  ZINC001191196975    0.1000
     14 N14        -3.4690    1.4427   50.7966 N.am    1  ZINC001191196975   -0.6200
     15 C15        -4.5852    0.6880   50.7688 C.2     1  ZINC001191196975    0.5300
     16 O16        -4.5812   -0.3797   50.1934 O.2     1  ZINC001191196975   -0.5400
     17 C17        -5.8384    1.1706   51.4526 C.3     1  ZINC001191196975   -0.1300
     18 C18        -6.7491    1.8502   50.4281 C.3     1  ZINC001191196975   -0.1000
     19 C19        -7.8157    2.6691   51.1577 C.3     1  ZINC001191196975   -0.1300
     20 C20        -8.8148    1.7237   51.8278 C.3     1  ZINC001191196975    0.1400
     21 N21        -8.6302    1.7677   53.2804 N.am    1  ZINC001191196975   -0.7500
     22 C22        -9.6740    1.5320   54.0998 C.2     1  ZINC001191196975    0.7000
     23 N23        -9.5038    1.5710   55.4362 N.am    1  ZINC001191196975   -0.8700
     24 O24       -10.7691    1.2842   53.6333 O.2     1  ZINC001191196975   -0.5900
     25 C25        -2.1805    1.0942   50.1694 C.3     1  ZINC001191196975    0.1100
     26 H26         4.1012   -1.8172   51.1832 H       1  ZINC001191196975    0.1000
     27 H27         4.5669   -1.4313   52.9534 H       1  ZINC001191196975    0.1000
     28 H28         4.4524    0.9072   52.4738 H       1  ZINC001191196975    0.1200
     29 H29         4.4221    1.5797   50.0904 H       1  ZINC001191196975    0.0800
     30 H30         4.1742   -0.1087   49.5844 H       1  ZINC001191196975    0.0700
     31 H31         1.9253    0.9874   51.0419 H       1  ZINC001191196975    0.4000
     32 H32         0.0939    1.5143   47.9308 H       1  ZINC001191196975    0.0700
     33 H33        -0.1762    0.3023   49.2061 H       1  ZINC001191196975    0.1100
     34 H34         0.4398    3.7893   48.4881 H       1  ZINC001191196975    0.0200
     35 H35         0.2711    4.3460   50.1703 H       1  ZINC001191196975    0.0700
     36 H36         1.7234    3.4455   49.6724 H       1  ZINC001191196975    0.0900
     37 H37        -1.2488    3.0015   52.0433 H       1  ZINC001191196975    0.0900
     38 H38        -1.8864    4.3182   51.0045 H       1  ZINC001191196975    0.0800
     39 H39        -3.5064    2.6447   52.5267 H       1  ZINC001191196975    0.0700
     40 H40        -4.0502    3.4544   51.0309 H       1  ZINC001191196975    0.0700
     41 H41        -6.3599    0.3224   51.8961 H       1  ZINC001191196975    0.0900
     42 H42        -5.5745    1.8837   52.2336 H       1  ZINC001191196975    0.0900
     43 H43        -6.1552    2.5093   49.7948 H       1  ZINC001191196975    0.0800
     44 H44        -7.2318    1.0919   49.8115 H       1  ZINC001191196975    0.0800
     45 H45        -7.3403    3.2918   51.9156 H       1  ZINC001191196975    0.0700
     46 H46        -8.3393    3.3033   50.4425 H       1  ZINC001191196975    0.0700
     47 H47        -9.8302    2.0337   51.5809 H       1  ZINC001191196975    0.0700
     48 H48        -8.6484    0.7071   51.4711 H       1  ZINC001191196975    0.0700
     49 H49        -7.7567    1.9666   53.6525 H       1  ZINC001191196975    0.4000
     50 H50       -10.2548    1.4002   56.0260 H       1  ZINC001191196975    0.4000
     51 H51        -8.6303    1.7699   55.8082 H       1  ZINC001191196975    0.4200
     52 H52        -2.3462    0.5837   49.2207 H       1  ZINC001191196975    0.0800
     53 H53        -1.5893    0.4697   50.8391 H       1  ZINC001191196975    0.0800
@<TRIPOS>BOND
     1     1     2    2
     2     1    26    1
     3     1    27    1
     4     2     3    1
     5     2    28    1
     6     3     4    1
     7     3    29    1
     8     3    30    1
     9     4     5   am
    10     4    31    1
    11     5     6    2
    12     5     7    1
    13     7     8    1
    14     7    32    1
    15     7    33    1
    16     8     9    1
    17     8    10    1
    18     9    34    1
    19     9    35    1
    20     9    36    1
    21    10    11    1
    22    10    25    1
    23    10    12    1
    24    12    13    1
    25    12    37    1
    26    12    38    1
    27    13    14    1
    28    13    39    1
    29    13    40    1
    30    14    15   am
    31    14    25    1
    32    15    16    2
    33    15    17    1
    34    17    18    1
    35    17    41    1
    36    17    42    1
    37    18    19    1
    38    18    43    1
    39    18    44    1
    40    19    20    1
    41    19    45    1
    42    19    46    1
    43    20    21    1
    44    20    47    1
    45    20    48    1
    46    21    22   am
    47    21    49    1
    48    22    23   am
    49    22    24    2
    50    23    50    1
    51    23    51    1
    52    25    52    1
    53    25    53    1
@<TRIPOS>SUBSTRUCTURE
     1 ZINC001191196975        1 TEMP              0 ****  ****    0 ROOT


##########                                Name:    ZINC000523153175
##########                DOCK_Rotatable_Bonds:                   9
##########                         Heavy_Atoms:                  30
##########                    Molecular_Weight:             413.603
##########                DOCK_Rotatable_Bonds:                   9
##########                       Formal_Charge:           0.0499987
##########                     HBond_Acceptors:                   5
##########                        HBond_Donors:                   1
##########                         Heavy_Atoms:                  30
##########                          Grid_Score:          -34.012222
##########                     Grid_vdw_energy:          -34.298382
##########                      Grid_es_energy:            0.286159
##########           Internal_energy_repulsive:           29.672756

@<TRIPOS>MOLECULE
ZINC000523153175
 69 71 1 0 0
SMALL
USER_CHARGES


@<TRIPOS>ATOM
      1 C1         -7.5268    7.0682   48.1853 C.3     1  ZINC000523153175   -0.1500
      2 C2         -8.3050    6.5779   49.4080 C.3     1  ZINC000523153175   -0.0600
      3 C3         -9.7472    6.2663   49.0033 C.3     1  ZINC000523153175   -0.1400
      4 C4         -7.6550    5.3312   49.9505 C.ar    1  ZINC000523153175   -0.0800
      5 C5         -7.2959    4.3093   49.0916 C.ar    1  ZINC000523153175   -0.1100
      6 C6         -6.6995    3.1657   49.5891 C.ar    1  ZINC000523153175   -0.1100
      7 C7         -6.4620    3.0442   50.9455 C.ar    1  ZINC000523153175   -0.0800
      8 C8         -5.8124    1.7973   51.4880 C.3     1  ZINC000523153175   -0.0300
      9 H9         -5.6692    1.9007   52.5635 H       1  ZINC000523153175    0.0800
     10 C10        -6.7104    0.5908   51.2068 C.3     1  ZINC000523153175   -0.1500
     11 C11        -4.4562    1.5927   50.8101 C.3     1  ZINC000523153175   -0.1300
     12 C12        -3.4122    2.4193   51.5157 C.2     1  ZINC000523153175    0.5200
     13 O13        -3.7389    3.1840   52.3984 O.2     1  ZINC000523153175   -0.5300
     14 N14        -2.1154    2.3088   51.1657 N.am    1  ZINC000523153175   -0.6200
     15 C15        -1.6984    1.3934   50.0925 C.3     1  ZINC000523153175    0.1100
     16 C16        -0.8280    2.1713   49.0999 C.3     1  ZINC000523153175    0.0400
     17 N17         0.2723    2.8220   49.8237 N.3     1  ZINC000523153175   -0.5100
     18 C18         1.2265    3.4353   48.8902 C.3     1  ZINC000523153175    0.0600
     19 H19         1.7861    4.2169   49.4039 H       1  ZINC000523153175    0.1100
     20 C20         2.1950    2.3681   48.3765 C.3     1  ZINC000523153175   -0.1800
     21 C21         0.4773    4.0351   47.7281 C.2     1  ZINC000523153175    0.5200
     22 O22        -0.2035    5.0252   47.8916 O.2     1  ZINC000523153175   -0.5200
     23 N23         0.5642    3.4709   46.5071 N.am    1  ZINC000523153175   -0.7200
     24 C24        -0.1627    4.0549   45.3771 C.3     1  ZINC000523153175    0.1400
     25 C25         0.5789    5.3054   44.8613 C.3     1  ZINC000523153175   -0.1300
     26 C26         1.4396    4.7790   43.6861 C.3     1  ZINC000523153175   -0.1300
     27 C27         0.5080    3.7356   43.0209 C.3     1  ZINC000523153175   -0.1300
     28 C28        -0.2077    3.0567   44.2068 C.3     1  ZINC000523153175   -0.1300
     29 C29        -0.2335    3.8111   50.7849 C.3     1  ZINC000523153175    0.0400
     30 C30        -1.0802    3.1048   51.8424 C.3     1  ZINC000523153175    0.1200
     31 C31        -6.8199    4.0667   51.8041 C.ar    1  ZINC000523153175   -0.1100
     32 C32        -7.4127    5.2119   51.3061 C.ar    1  ZINC000523153175   -0.1200
     33 H33        -7.9969    7.9699   47.7929 H       1  ZINC000523153175    0.0600
     34 H34        -6.4994    7.2901   48.4737 H       1  ZINC000523153175    0.0600
     35 H35        -7.5297    6.2937   47.4183 H       1  ZINC000523153175    0.0600
     36 H36        -8.3021    7.3524   50.1751 H       1  ZINC000523153175    0.0800
     37 H37        -9.7502    5.4919   48.2363 H       1  ZINC000523153175    0.0600
     38 H38       -10.3017    5.9169   49.8744 H       1  ZINC000523153175    0.0600
     39 H39       -10.2174    7.1681   48.6109 H       1  ZINC000523153175    0.0600
     40 H40        -7.4814    4.4042   48.0318 H       1  ZINC000523153175    0.1200
     41 H41        -6.4196    2.3670   48.9182 H       1  ZINC000523153175    0.1200
     42 H42        -6.2405   -0.3111   51.5990 H       1  ZINC000523153175    0.0800
     43 H43        -7.6766    0.7366   51.6896 H       1  ZINC000523153175    0.0600
     44 H44        -6.8536    0.4875   50.1311 H       1  ZINC000523153175    0.0500
     45 H45        -4.1803    0.5393   50.8599 H       1  ZINC000523153175    0.0900
     46 H46        -4.5209    1.9024   49.7670 H       1  ZINC000523153175    0.0900
     47 H47        -1.1237    0.5699   50.5165 H       1  ZINC000523153175    0.0800
     48 H48        -2.5786    1.0040   49.5809 H       1  ZINC000523153175    0.0900
     49 H49        -0.4197    1.4847   48.3582 H       1  ZINC000523153175    0.0900
     50 H50        -1.4331    2.9283   48.6011 H       1  ZINC000523153175    0.0400
     51 H51         1.6353    1.5866   47.8627 H       1  ZINC000523153175    0.0700
     52 H52         2.9029    2.8232   47.6838 H       1  ZINC000523153175    0.0700
     53 H53         2.7368    1.9343   49.2170 H       1  ZINC000523153175    0.0700
     54 H54         1.1078    2.6782   46.3767 H       1  ZINC000523153175    0.4000
     55 H55        -1.1754    4.3194   45.6814 H       1  ZINC000523153175    0.0900
     56 H56        -0.1324    6.0524   44.5087 H       1  ZINC000523153175    0.0700
     57 H57         1.2143    5.7216   45.6431 H       1  ZINC000523153175    0.0700
     58 H58         1.6772    5.5838   42.9905 H       1  ZINC000523153175    0.0700
     59 H59         2.3490    4.3050   44.0554 H       1  ZINC000523153175    0.0700
     60 H60        -0.2146    4.2289   42.3709 H       1  ZINC000523153175    0.0700
     61 H61         1.0918    3.0061   42.4594 H       1  ZINC000523153175    0.0700
     62 H62         0.3112    2.1378   44.4797 H       1  ZINC000523153175    0.0700
     63 H63        -1.2423    2.8375   43.9427 H       1  ZINC000523153175    0.0800
     64 H64         0.6060    4.3136   51.2653 H       1  ZINC000523153175    0.1000
     65 H65        -0.8468    4.5453   50.2626 H       1  ZINC000523153175    0.0400
     66 H66        -1.5504    3.8453   52.4895 H       1  ZINC000523153175    0.1000
     67 H67        -0.4485    2.4441   52.4361 H       1  ZINC000523153175    0.0800
     68 H68        -6.6340    3.9719   52.8638 H       1  ZINC000523153175    0.1200
     69 H69        -7.6923    6.0107   51.9770 H       1  ZINC000523153175    0.1200
@<TRIPOS>BOND
     1     1     2    1
     2     1    33    1
     3     1    34    1
     4     1    35    1
     5     2     3    1
     6     2     4    1
     7     2    36    1
     8     3    37    1
     9     3    38    1
    10     3    39    1
    11     4    32   ar
    12     4     5   ar
    13     5     6   ar
    14     5    40    1
    15     6     7   ar
    16     6    41    1
    17     7     8    1
    18     7    31   ar
    19     8     9    1
    20     8    10    1
    21     8    11    1
    22    10    42    1
    23    10    43    1
    24    10    44    1
    25    11    12    1
    26    11    45    1
    27    11    46    1
    28    12    13    2
    29    12    14   am
    30    14    30    1
    31    14    15    1
    32    15    16    1
    33    15    47    1
    34    15    48    1
    35    16    17    1
    36    16    49    1
    37    16    50    1
    38    17    18    1
    39    17    29    1
    40    18    19    1
    41    18    20    1
    42    18    21    1
    43    20    51    1
    44    20    52    1
    45    20    53    1
    46    21    22    2
    47    21    23   am
    48    23    24    1
    49    23    54    1
    50    24    28    1
    51    24    25    1
    52    24    55    1
    53    25    26    1
    54    25    56    1
    55    25    57    1
    56    26    27    1
    57    26    58    1
    58    26    59    1
    59    27    28    1
    60    27    60    1
    61    27    61    1
    62    28    62    1
    63    28    63    1
    64    29    30    1
    65    29    64    1
    66    29    65    1
    67    30    66    1
    68    30    67    1
    69    31    32   ar
    70    31    68    1
    71    32    69    1
@<TRIPOS>SUBSTRUCTURE
     1 ZINC000523153175        1 TEMP              0 ****  ****    0 ROOT


##########                                Name:    ZINC000492313853
##########                DOCK_Rotatable_Bonds:                   8
##########                         Heavy_Atoms:                  30
##########                    Molecular_Weight:             418.422
##########                DOCK_Rotatable_Bonds:                   8
##########                       Formal_Charge:          -0.0100008
##########                     HBond_Acceptors:                  10
##########                        HBond_Donors:                   2
##########                         Heavy_Atoms:                  30
##########                          Grid_Score:          -33.995708
##########                     Grid_vdw_energy:          -31.975452
##########                      Grid_es_energy:           -2.020257
##########           Internal_energy_repulsive:           11.580816

@<TRIPOS>MOLECULE
ZINC000492313853
 51 53 1 0 0
SMALL
USER_CHARGES


@<TRIPOS>ATOM
      1 C1        -10.3186    5.3936   52.0720 C.3     1  ZINC000492313853    0.0900
      2 N2         -9.4250    5.1904   50.9289 N.pl3   1  ZINC000492313853   -0.6200
      3 C3         -9.3340    6.2093   49.8803 C.3     1  ZINC000492313853    0.1000
      4 C4         -8.6636    4.0309   50.8394 C.ar    1  ZINC000492313853    0.4100
      5 C5         -7.8121    3.8476   49.7549 C.ar    1  ZINC000492313853   -0.2400
      6 C6         -7.0597    2.6891   49.6787 C.ar    1  ZINC000492313853   -0.0100
      7 C7         -7.1848    1.7498   50.6934 C.ar    1  ZINC000492313853   -0.2300
      8 C8         -6.3844    0.4736   50.6522 C.3     1  ZINC000492313853    0.2000
      9 N9         -5.0991    0.6813   51.3239 N.am    1  ZINC000492313853   -0.7300
     10 C10        -4.0437    1.1501   50.6290 C.2     1  ZINC000492313853    0.7100
     11 O11        -4.1586    1.4020   49.4451 O.2     1  ZINC000492313853   -0.5600
     12 N12        -2.8608    1.3397   51.2466 N.am    1  ZINC000492313853   -0.6600
     13 C13        -1.7678    1.8233   50.5271 C.2     1  ZINC000492313853    0.3300
     14 C14        -1.1384    1.1893   49.5031 C.2     1  ZINC000492313853   -0.2600
     15 C15        -0.0924    2.0206   49.0607 C.2     1  ZINC000492313853    0.1200
     16 C16         0.8528    1.7182   47.9572 C.ar    1  ZINC000492313853   -0.0100
     17 C17         2.2233    1.6735   48.2031 C.ar    1  ZINC000492313853   -0.0600
     18 C18         3.0980    1.3914   47.1731 C.ar    1  ZINC000492313853   -0.1200
     19 C19         2.6160    1.1533   45.8990 C.ar    1  ZINC000492313853   -0.0700
     20 C20         1.2560    1.1963   45.6491 C.ar    1  ZINC000492313853   -0.1900
     21 C21         0.7381    0.9353   44.2582 C.3     1  ZINC000492313853    0.5100
     22 F22        -0.5578    0.4133   44.3334 F       1  ZINC000492313853   -0.1800
     23 F23         0.7170    2.1332   43.5360 F       1  ZINC000492313853   -0.1800
     24 F24         1.5740    0.0169   43.6140 F       1  ZINC000492313853   -0.1800
     25 C25         0.3723    1.4723   46.6725 C.ar    1  ZINC000492313853   -0.0400
     26 N26        -0.0979    3.1125   49.7954 N.2     1  ZINC000492313853   -0.2700
     27 N27        -1.1450    3.0154   50.7203 N.pl3   1  ZINC000492313853   -0.3900
     28 C28        -1.5008    4.0191   51.7264 C.3     1  ZINC000492313853    0.1000
     29 C29        -8.0496    1.9970   51.7409 C.ar    1  ZINC000492313853    0.1700
     30 N30        -8.7513    3.1133   51.7902 N.ar    1  ZINC000492313853   -0.5400
     31 H31       -11.3019    4.9834   51.8420 H       1  ZINC000492313853    0.0600
     32 H32        -9.9098    4.8882   52.9471 H       1  ZINC000492313853    0.0700
     33 H33       -10.4088    6.4603   52.2776 H       1  ZINC000492313853    0.0700
     34 H34        -9.9983    7.0393   50.1214 H       1  ZINC000492313853    0.0700
     35 H35        -8.3083    6.5723   49.8144 H       1  ZINC000492313853    0.0600
     36 H36        -9.6276    5.7747   48.9248 H       1  ZINC000492313853    0.0600
     37 H37        -7.7396    4.5991   48.9828 H       1  ZINC000492313853    0.1300
     38 H38        -6.3904    2.5191   48.8484 H       1  ZINC000492313853    0.1400
     39 H39        -6.9359   -0.3177   51.1599 H       1  ZINC000492313853    0.0800
     40 H40        -6.2103    0.1873   49.6150 H       1  ZINC000492313853    0.0800
     41 H41        -5.0078    0.4815   52.2687 H       1  ZINC000492313853    0.4000
     42 H42        -2.7695    1.1399   52.1915 H       1  ZINC000492313853    0.4100
     43 H43        -1.3946    0.2203   49.1011 H       1  ZINC000492313853    0.1800
     44 H44         2.6007    1.8597   49.1977 H       1  ZINC000492313853    0.1400
     45 H45         4.1607    1.3568   47.3626 H       1  ZINC000492313853    0.1400
     46 H46         3.3038    0.9331   45.0959 H       1  ZINC000492313853    0.1400
     47 H47        -0.6892    1.5056   46.4764 H       1  ZINC000492313853    0.1400
     48 H48        -2.2237    4.7168   51.3038 H       1  ZINC000492313853    0.0800
     49 H49        -1.9374    3.5248   52.5943 H       1  ZINC000492313853    0.0800
     50 H50        -0.6059    4.5625   52.0297 H       1  ZINC000492313853    0.1000
     51 H51        -8.1500    1.2690   52.5324 H       1  ZINC000492313853    0.1600
@<TRIPOS>BOND
     1     1     2    1
     2     1    31    1
     3     1    32    1
     4     1    33    1
     5     2     3    1
     6     2     4    1
     7     3    34    1
     8     3    35    1
     9     3    36    1
    10     4    30   ar
    11     4     5   ar
    12     5     6   ar
    13     5    37    1
    14     6     7   ar
    15     6    38    1
    16     7     8    1
    17     7    29   ar
    18     8     9    1
    19     8    39    1
    20     8    40    1
    21     9    10   am
    22     9    41    1
    23    10    11    2
    24    10    12   am
    25    12    13    1
    26    12    42    1
    27    13    27    1
    28    13    14    2
    29    14    15    1
    30    14    43    1
    31    15    16    1
    32    15    26    2
    33    16    25   ar
    34    16    17   ar
    35    17    18   ar
    36    17    44    1
    37    18    19   ar
    38    18    45    1
    39    19    20   ar
    40    19    46    1
    41    20    21    1
    42    20    25   ar
    43    21    22    1
    44    21    23    1
    45    21    24    1
    46    25    47    1
    47    26    27    1
    48    27    28    1
    49    28    48    1
    50    28    49    1
    51    28    50    1
    52    29    30   ar
    53    29    51    1
@<TRIPOS>SUBSTRUCTURE
     1 ZINC000492313853        1 TEMP              0 ****  ****    0 ROOT


##########                                Name:    ZINC000027473870
##########                DOCK_Rotatable_Bonds:                  10
##########                         Heavy_Atoms:                  31
##########                    Molecular_Weight:             422.502
##########                DOCK_Rotatable_Bonds:                  10
##########                       Formal_Charge:        -7.45058e-08
##########                     HBond_Acceptors:                   7
##########                        HBond_Donors:                   1
##########                         Heavy_Atoms:                  31
##########                          Grid_Score:          -33.982212
##########                     Grid_vdw_energy:          -33.119846
##########                      Grid_es_energy:           -0.862367
##########           Internal_energy_repulsive:           19.655390

@<TRIPOS>MOLECULE
ZINC000027473870
 58 60 1 0 0
SMALL
USER_CHARGES


@<TRIPOS>ATOM
      1 C1         -4.5170    4.0787   52.8930 C.3     1  ZINC000027473870   -0.1400
      2 C2         -4.4649    3.8986   51.3745 C.3     1  ZINC000027473870   -0.0800
      3 C3         -4.5720    2.4335   51.0385 C.2     1  ZINC000027473870    0.1700
      4 C4         -5.7076    1.6538   51.1334 C.2     1  ZINC000027473870   -0.2900
      5 C5         -7.0396    2.0988   51.5815 C.2     1  ZINC000027473870    0.6000
      6 O6         -7.8035    2.6209   50.7924 O.2     1  ZINC000027473870   -0.5400
      7 N7         -7.4109    1.9271   52.8657 N.am    1  ZINC000027473870   -0.7200
      8 C8         -8.7354    2.3678   53.3105 C.3     1  ZINC000027473870    0.1600
      9 C9         -8.8118    2.2907   54.8135 C.ar    1  ZINC000027473870   -0.0900
     10 C10        -7.7454    2.7251   55.5806 C.ar    1  ZINC000027473870   -0.1100
     11 C11        -7.8086    2.6569   56.9570 C.ar    1  ZINC000027473870   -0.1100
     12 C12        -8.9519    2.1485   57.5755 C.ar    1  ZINC000027473870   -0.1200
     13 C13        -9.0269    2.0728   59.0502 C.2     1  ZINC000027473870    0.5600
     14 O14        -9.6620    2.9035   59.6699 O.2     1  ZINC000027473870   -0.5300
     15 N15        -8.3910    1.0827   59.7073 N.am    1  ZINC000027473870   -0.6100
     16 C16        -8.4653    1.0076   61.1685 C.3     1  ZINC000027473870    0.1100
     17 C17        -8.9079   -0.3964   61.5851 C.3     1  ZINC000027473870   -0.1700
     18 C18        -7.6256    0.0815   58.9604 C.3     1  ZINC000027473870    0.0900
     19 C19        -8.5827   -0.9552   58.3687 C.3     1  ZINC000027473870   -0.1800
     20 C20       -10.0244    1.7124   56.7959 C.ar    1  ZINC000027473870   -0.0700
     21 C21        -9.9502    1.7909   55.4205 C.ar    1  ZINC000027473870   -0.1000
     22 C22        -5.3542    0.3493   50.7203 C.2     1  ZINC000027473870    0.0900
     23 N23        -4.0891    0.3551   50.4005 N.2     1  ZINC000027473870   -0.2800
     24 N24        -3.5804    1.6456   50.5852 N.pl3   1  ZINC000027473870   -0.3100
     25 C25        -2.2583    2.0472   50.3472 C.ar    1  ZINC000027473870    0.1300
     26 C26        -1.4308    2.3801   51.4112 C.ar    1  ZINC000027473870   -0.0900
     27 C27        -0.1287    2.7751   51.1749 C.ar    1  ZINC000027473870   -0.1300
     28 C28         0.3517    2.8391   49.8776 C.ar    1  ZINC000027473870    0.1100
     29 F29         1.6259    3.2253   49.6483 F       1  ZINC000027473870   -0.1300
     30 C30        -0.4723    2.5074   48.8150 C.ar    1  ZINC000027473870   -0.1400
     31 C31        -1.7733    2.1071   49.0477 C.ar    1  ZINC000027473870   -0.0700
     32 H32        -4.3517    5.1273   53.1404 H       1  ZINC000027473870    0.0700
     33 H33        -5.4942    3.7679   53.2624 H       1  ZINC000027473870    0.0700
     34 H34        -3.7421    3.4692   53.3580 H       1  ZINC000027473870    0.0500
     35 H35        -5.2936    4.4381   50.9160 H       1  ZINC000027473870    0.1200
     36 H36        -3.5215    4.2906   50.9944 H       1  ZINC000027473870    0.0800
     37 H37        -6.8011    1.5118   53.4955 H       1  ZINC000027473870    0.4000
     38 H38        -8.9026    3.3961   52.9904 H       1  ZINC000027473870    0.0800
     39 H39        -9.4982    1.7229   52.8743 H       1  ZINC000027473870    0.0800
     40 H40        -6.8613    3.1183   55.1007 H       1  ZINC000027473870    0.1300
     41 H41        -6.9753    2.9957   57.5546 H       1  ZINC000027473870    0.1500
     42 H42        -7.4844    1.2205   61.5936 H       1  ZINC000027473870    0.0800
     43 H43        -9.1860    1.7393   61.5337 H       1  ZINC000027473870    0.0800
     44 H44        -8.9631   -0.4522   62.6723 H       1  ZINC000027473870    0.0700
     45 H45        -9.8888   -0.6092   61.1601 H       1  ZINC000027473870    0.0600
     46 H46        -8.1871   -1.1280   61.2199 H       1  ZINC000027473870    0.0600
     47 H47        -7.0765    0.5701   58.1555 H       1  ZINC000027473870    0.0800
     48 H48        -6.9232   -0.4136   59.6310 H       1  ZINC000027473870    0.0900
     49 H49        -8.0164   -1.8262   58.0391 H       1  ZINC000027473870    0.0700
     50 H50        -9.3052   -1.2572   59.1269 H       1  ZINC000027473870    0.0700
     51 H51        -9.1086   -0.5207   57.5184 H       1  ZINC000027473870    0.0600
     52 H52       -10.9117    1.3175   57.2685 H       1  ZINC000027473870    0.1300
     53 H53       -10.7794    1.4541   54.8161 H       1  ZINC000027473870    0.1300
     54 H54        -6.0155   -0.5035   50.6773 H       1  ZINC000027473870    0.1900
     55 H55        -1.8052    2.3306   52.4230 H       1  ZINC000027473870    0.1500
     56 H56         0.5152    3.0344   52.0023 H       1  ZINC000027473870    0.1500
     57 H57        -0.0958    2.5584   47.8040 H       1  ZINC000027473870    0.1500
     58 H58        -2.4154    1.8481   48.2188 H       1  ZINC000027473870    0.1400
@<TRIPOS>BOND
     1     1     2    1
     2     1    32    1
     3     1    33    1
     4     1    34    1
     5     2     3    1
     6     2    35    1
     7     2    36    1
     8     3    24    1
     9     3     4    2
    10     4     5    1
    11     4    22    1
    12     5     6    2
    13     5     7   am
    14     7     8    1
    15     7    37    1
    16     8     9    1
    17     8    38    1
    18     8    39    1
    19     9    21   ar
    20     9    10   ar
    21    10    11   ar
    22    10    40    1
    23    11    12   ar
    24    11    41    1
    25    12    13    1
    26    12    20   ar
    27    13    14    2
    28    13    15   am
    29    15    16    1
    30    15    18    1
    31    16    17    1
    32    16    42    1
    33    16    43    1
    34    17    44    1
    35    17    45    1
    36    17    46    1
    37    18    19    1
    38    18    47    1
    39    18    48    1
    40    19    49    1
    41    19    50    1
    42    19    51    1
    43    20    21   ar
    44    20    52    1
    45    21    53    1
    46    22    23    2
    47    22    54    1
    48    23    24    1
    49    24    25    1
    50    25    31   ar
    51    25    26   ar
    52    26    27   ar
    53    26    55    1
    54    27    28   ar
    55    27    56    1
    56    28    29    1
    57    28    30   ar
    58    30    31   ar
    59    30    57    1
    60    31    58    1
@<TRIPOS>SUBSTRUCTURE
     1 ZINC000027473870        1 TEMP              0 ****  ****    0 ROOT


##########                                Name:    ZINC000654672208
##########                DOCK_Rotatable_Bonds:                   5
##########                         Heavy_Atoms:                  25
##########                    Molecular_Weight:             365.497
##########                DOCK_Rotatable_Bonds:                   5
##########                       Formal_Charge:           0.0100001
##########                     HBond_Acceptors:                   7
##########                        HBond_Donors:                   1
##########                         Heavy_Atoms:                  25
##########                          Grid_Score:          -33.971088
##########                     Grid_vdw_energy:          -32.218151
##########                      Grid_es_energy:           -1.752936
##########           Internal_energy_repulsive:           14.577908

@<TRIPOS>MOLECULE
ZINC000654672208
 52 54 1 0 0
SMALL
USER_CHARGES


@<TRIPOS>ATOM
      1 C1         -7.3781    6.5202   48.4538 C.3     1  ZINC000654672208   -0.1100
      2 C2         -7.2807    5.3383   49.3836 C.ar    1  ZINC000654672208   -0.1300
      3 C3         -6.9154    4.0963   48.9007 C.ar    1  ZINC000654672208    0.1000
      4 N4         -6.8276    3.0574   49.7084 N.ar    1  ZINC000654672208   -0.4700
      5 C5         -7.0819    3.1587   50.9983 C.ar    1  ZINC000654672208    0.1200
      6 C6         -6.9667    1.9404   51.8778 C.3     1  ZINC000654672208   -0.0900
      7 C7         -5.8994    1.0017   51.3117 C.3     1  ZINC000654672208    0.1500
      8 N8         -4.5769    1.6096   51.4772 N.am    1  ZINC000654672208   -0.7500
      9 C9         -3.5114    1.0903   50.8357 C.2     1  ZINC000654672208    0.7100
     10 O10        -3.6479    0.1171   50.1197 O.2     1  ZINC000654672208   -0.5800
     11 N11        -2.2947    1.6495   50.9879 N.am    1  ZINC000654672208   -0.6300
     12 C12        -2.1146    2.8256   51.8499 C.3     1  ZINC000654672208    0.1300
     13 C13        -1.4223    3.9270   51.0410 C.3     1  ZINC000654672208   -0.1400
     14 C14        -0.1233    3.3790   50.4469 C.3     1  ZINC000654672208   -0.1100
     15 C15        -0.4445    2.2171   49.4992 C.3     1  ZINC000654672208   -0.0600
     16 C16         0.8602    1.6838   48.8985 C.3     1  ZINC000654672208   -0.1200
     17 C17         0.5591    1.0998   47.4943 C.3     1  ZINC000654672208   -0.5800
     18 S18        -0.5866    2.3692   46.8196 S.o2    1  ZINC000654672208    2.3800
     19 O19         0.1539    3.5110   46.4107 O.2     1  ZINC000654672208   -0.9300
     20 O20        -1.5032    1.7563   45.9233 O.2     1  ZINC000654672208   -0.9300
     21 C21        -1.4169    2.7141   48.4157 C.3     1  ZINC000654672208   -0.5800
     22 C22        -1.1235    1.0908   50.2999 C.3     1  ZINC000654672208    0.1200
     23 C23        -7.4525    4.3692   51.5530 C.ar    1  ZINC000654672208   -0.1200
     24 C24        -7.7409    4.4761   53.0283 C.3     1  ZINC000654672208   -0.1200
     25 C25        -7.5508    5.4848   50.7359 C.ar    1  ZINC000654672208   -0.0800
     26 H26        -6.4126    7.0236   48.4034 H       1  ZINC000654672208    0.0700
     27 H27        -7.6613    6.1771   47.4586 H       1  ZINC000654672208    0.0700
     28 H28        -8.1309    7.2147   48.8265 H       1  ZINC000654672208    0.0700
     29 H29        -6.6998    3.9747   47.8494 H       1  ZINC000654672208    0.1600
     30 H30        -6.6848    2.2453   52.8857 H       1  ZINC000654672208    0.0900
     31 H31        -7.9256    1.4232   51.9096 H       1  ZINC000654672208    0.0900
     32 H32        -5.9318    0.0513   51.8445 H       1  ZINC000654672208    0.0700
     33 H33        -6.0908    0.8309   50.2523 H       1  ZINC000654672208    0.0700
     34 H34        -4.4680    2.3859   52.0485 H       1  ZINC000654672208    0.3900
     35 H35        -3.0868    3.1799   52.1926 H       1  ZINC000654672208    0.1000
     36 H36        -1.4970    2.5590   52.7076 H       1  ZINC000654672208    0.0700
     37 H37        -2.0801    4.2554   50.2363 H       1  ZINC000654672208    0.0700
     38 H38        -1.1964    4.7703   51.6937 H       1  ZINC000654672208    0.0800
     39 H39         0.3850    4.1688   49.8940 H       1  ZINC000654672208    0.0800
     40 H40         0.5225    3.0245   51.2503 H       1  ZINC000654672208    0.0800
     41 H41         1.5820    2.4958   48.8106 H       1  ZINC000654672208    0.1000
     42 H42         1.2670    0.9026   49.5408 H       1  ZINC000654672208    0.1000
     43 H43         1.4669    1.0325   46.8947 H       1  ZINC000654672208    0.1400
     44 H44         0.0686    0.1295   47.5701 H       1  ZINC000654672208    0.1400
     45 H45        -2.3592    2.1698   48.4761 H       1  ZINC000654672208    0.1400
     46 H46        -1.5907    3.7844   48.5271 H       1  ZINC000654672208    0.1400
     47 H47        -0.4218    0.6869   51.0297 H       1  ZINC000654672208    0.0800
     48 H48        -1.4429    0.3006   49.6204 H       1  ZINC000654672208    0.0800
     49 H49        -6.8226    4.7232   53.5610 H       1  ZINC000654672208    0.0800
     50 H50        -8.4810    5.2581   53.1980 H       1  ZINC000654672208    0.0700
     51 H51        -8.1277    3.5245   53.3927 H       1  ZINC000654672208    0.0700
     52 H52        -7.8382    6.4436   51.1416 H       1  ZINC000654672208    0.1300
@<TRIPOS>BOND
     1     1     2    1
     2     1    26    1
     3     1    27    1
     4     1    28    1
     5     2    25   ar
     6     2     3   ar
     7     3     4   ar
     8     3    29    1
     9     4     5   ar
    10     5     6    1
    11     5    23   ar
    12     6     7    1
    13     6    30    1
    14     6    31    1
    15     7     8    1
    16     7    32    1
    17     7    33    1
    18     8     9   am
    19     8    34    1
    20     9    10    2
    21     9    11   am
    22    11    22    1
    23    11    12    1
    24    12    13    1
    25    12    35    1
    26    12    36    1
    27    13    14    1
    28    13    37    1
    29    13    38    1
    30    14    15    1
    31    14    39    1
    32    14    40    1
    33    15    21    1
    34    15    16    1
    35    15    22    1
    36    16    17    1
    37    16    41    1
    38    16    42    1
    39    17    18    1
    40    17    43    1
    41    17    44    1
    42    18    19    2
    43    18    20    2
    44    18    21    1
    45    21    45    1
    46    21    46    1
    47    22    47    1
    48    22    48    1
    49    23    24    1
    50    23    25   ar
    51    24    49    1
    52    24    50    1
    53    24    51    1
    54    25    52    1
@<TRIPOS>SUBSTRUCTURE
     1 ZINC000654672208        1 TEMP              0 ****  ****    0 ROOT


##########                                Name:    ZINC001310073555
##########                DOCK_Rotatable_Bonds:                  12
##########                         Heavy_Atoms:                  27
##########                    Molecular_Weight:             380.484
##########                DOCK_Rotatable_Bonds:                  12
##########                       Formal_Charge:          0.00999888
##########                     HBond_Acceptors:                   7
##########                        HBond_Donors:                   2
##########                         Heavy_Atoms:                  27
##########                          Grid_Score:          -33.914223
##########                     Grid_vdw_energy:          -32.007488
##########                      Grid_es_energy:           -1.906735
##########           Internal_energy_repulsive:           49.951344

@<TRIPOS>MOLECULE
ZINC001310073555
 59 59 1 0 0
SMALL
USER_CHARGES


@<TRIPOS>ATOM
      1 C1          0.6445    0.8833   46.8514 C.3     1  ZINC001310073555   -0.1600
      2 C2          0.7153    2.2288   47.5763 C.3     1  ZINC001310073555   -0.1100
      3 C3          0.1732    2.0710   48.9984 C.3     1  ZINC001310073555   -0.0600
      4 C4         -0.2579    3.4377   49.5343 C.3     1  ZINC001310073555   -0.1100
      5 C5          0.9141    4.4164   49.4371 C.3     1  ZINC001310073555   -0.1600
      6 C6         -1.0301    1.1262   48.9837 C.3     1  ZINC001310073555    0.1600
      7 N7         -1.7280    1.2044   50.2693 N.am    1  ZINC001310073555   -0.7400
      8 C8         -3.0733    1.2792   50.3022 C.2     1  ZINC001310073555    0.7100
      9 O9         -3.7078    1.2804   49.2649 O.2     1  ZINC001310073555   -0.5700
     10 N10        -3.7154    1.3527   51.4850 N.am    1  ZINC001310073555   -0.6700
     11 C11        -5.1165    1.4307   51.5194 C.ar    1  ZINC001310073555    0.1000
     12 C12        -5.8819    0.3614   51.0800 C.ar    1  ZINC001310073555   -0.0400
     13 C13        -7.2617    0.4381   51.1138 C.ar    1  ZINC001310073555   -0.2200
     14 C14        -7.8834    1.5836   51.5873 C.ar    1  ZINC001310073555    0.1500
     15 O15        -9.2408    1.6559   51.6194 O.3     1  ZINC001310073555   -0.3200
     16 C16        -9.8759    1.3782   52.8689 C.3     1  ZINC001310073555    0.0300
     17 C17        -7.1217    2.6557   52.0289 C.ar    1  ZINC001310073555   -0.2300
     18 C18        -5.7394    2.5801   52.0003 C.ar    1  ZINC001310073555    0.1400
     19 O19        -4.9910    3.6300   52.4327 O.3     1  ZINC001310073555   -0.3100
     20 C20        -5.1375    4.0108   53.8021 C.3     1  ZINC001310073555    0.0300
     21 C21         1.2493    1.5002   49.8857 C.2     1  ZINC001310073555    0.4800
     22 O22         1.0320    1.3225   51.0609 O.2     1  ZINC001310073555   -0.5000
     23 O23         2.4492    1.1892   49.3705 O.3     1  ZINC001310073555   -0.3400
     24 C24         3.5829    1.2161   50.2772 C.3     1  ZINC001310073555    0.1200
     25 C25         3.4963    0.0282   51.2375 C.3     1  ZINC001310073555   -0.1800
     26 C26         4.8814    1.1280   49.4727 C.3     1  ZINC001310073555   -0.1400
     27 C27         3.5657    2.5206   51.0766 C.3     1  ZINC001310073555   -0.1800
     28 H28         1.0307    0.9956   45.8383 H       1  ZINC001310073555    0.0600
     29 H29         1.2440    0.1488   47.3893 H       1  ZINC001310073555    0.0500
     30 H30        -0.3914    0.5468   46.8102 H       1  ZINC001310073555    0.0600
     31 H31         1.7512    2.5653   47.6176 H       1  ZINC001310073555    0.0800
     32 H32         0.1158    2.9632   47.0384 H       1  ZINC001310073555    0.0800
     33 H33        -1.0940    3.8123   48.9439 H       1  ZINC001310073555    0.0800
     34 H34        -0.5638    3.3394   50.5759 H       1  ZINC001310073555    0.0800
     35 H35         1.7502    4.0418   50.0276 H       1  ZINC001310073555    0.0600
     36 H36         1.2200    4.5147   48.3955 H       1  ZINC001310073555    0.0500
     37 H37         0.6071    5.3900   49.8189 H       1  ZINC001310073555    0.0600
     38 H38        -1.7101    1.4165   48.1828 H       1  ZINC001310073555    0.0800
     39 H39        -0.6879    0.1048   48.8174 H       1  ZINC001310073555    0.0800
     40 H40        -1.2220    1.2022   51.0968 H       1  ZINC001310073555    0.4000
     41 H41        -3.2093    1.3518   52.3125 H       1  ZINC001310073555    0.4100
     42 H42        -5.3998   -0.5317   50.7108 H       1  ZINC001310073555    0.1500
     43 H43        -7.8565   -0.3955   50.7705 H       1  ZINC001310073555    0.1300
     44 H44        -9.6291    0.3645   53.1846 H       1  ZINC001310073555    0.0600
     45 H45        -9.5271    2.0875   53.6194 H       1  ZINC001310073555    0.0600
     46 H46       -10.9561    1.4707   52.7559 H       1  ZINC001310073555    0.1000
     47 H47        -7.6067    3.5474   52.3975 H       1  ZINC001310073555    0.1400
     48 H48        -4.4864    4.8585   54.0153 H       1  ZINC001310073555    0.1000
     49 H49        -6.1735    4.2916   53.9923 H       1  ZINC001310073555    0.0600
     50 H50        -4.8647    3.1728   54.4436 H       1  ZINC001310073555    0.0600
     51 H51         3.5086   -0.9011   50.6680 H       1  ZINC001310073555    0.0600
     52 H52         4.3475    0.0484   51.9181 H       1  ZINC001310073555    0.0700
     53 H53         2.5712    0.0910   51.8106 H       1  ZINC001310073555    0.0800
     54 H54         4.9431    1.9743   48.7886 H       1  ZINC001310073555    0.0700
     55 H55         5.7326    1.1482   50.1534 H       1  ZINC001310073555    0.0800
     56 H56         4.8937    0.1987   48.9032 H       1  ZINC001310073555    0.0700
     57 H57         2.6407    2.5833   51.6497 H       1  ZINC001310073555    0.0800
     58 H58         4.4169    2.5408   51.7571 H       1  ZINC001310073555    0.0700
     59 H59         3.6275    3.3669   50.3923 H       1  ZINC001310073555    0.0600
@<TRIPOS>BOND
     1     1     2    1
     2     1    28    1
     3     1    29    1
     4     1    30    1
     5     2     3    1
     6     2    31    1
     7     2    32    1
     8     3     4    1
     9     3     6    1
    10     3    21    1
    11     4     5    1
    12     4    33    1
    13     4    34    1
    14     5    35    1
    15     5    36    1
    16     5    37    1
    17     6     7    1
    18     6    38    1
    19     6    39    1
    20     7     8   am
    21     7    40    1
    22     8     9    2
    23     8    10   am
    24    10    11    1
    25    10    41    1
    26    11    18   ar
    27    11    12   ar
    28    12    13   ar
    29    12    42    1
    30    13    14   ar
    31    13    43    1
    32    14    15    1
    33    14    17   ar
    34    15    16    1
    35    16    44    1
    36    16    45    1
    37    16    46    1
    38    17    18   ar
    39    17    47    1
    40    18    19    1
    41    19    20    1
    42    20    48    1
    43    20    49    1
    44    20    50    1
    45    21    22    2
    46    21    23    1
    47    23    24    1
    48    24    25    1
    49    24    26    1
    50    24    27    1
    51    25    51    1
    52    25    52    1
    53    25    53    1
    54    26    54    1
    55    26    55    1
    56    26    56    1
    57    27    57    1
    58    27    58    1
    59    27    59    1
@<TRIPOS>SUBSTRUCTURE
     1 ZINC001310073555        1 TEMP              0 ****  ****    0 ROOT


##########                                Name:    ZINC000110375116
##########                DOCK_Rotatable_Bonds:                  10
##########                         Heavy_Atoms:                  27
##########                    Molecular_Weight:             396.511
##########                DOCK_Rotatable_Bonds:                  10
##########                       Formal_Charge:        -2.23517e-07
##########                     HBond_Acceptors:                   9
##########                        HBond_Donors:                   0
##########                         Heavy_Atoms:                  27
##########                          Grid_Score:          -33.912563
##########                     Grid_vdw_energy:          -31.718613
##########                      Grid_es_energy:           -2.193949
##########           Internal_energy_repulsive:           24.621048

@<TRIPOS>MOLECULE
ZINC000110375116
 55 56 1 0 0
SMALL
USER_CHARGES


@<TRIPOS>ATOM
      1 C1        -11.3145    0.7246   53.6273 C.3     1  ZINC000110375116   -0.1700
      2 C2        -10.9139    1.2120   52.2333 C.3     1  ZINC000110375116    0.1000
      3 N3         -9.6350    1.9221   52.3132 N.am    1  ZINC000110375116   -0.6200
      4 C4         -9.6132    3.3665   52.5565 C.3     1  ZINC000110375116    0.1100
      5 C5         -9.6502    4.1096   51.2195 C.3     1  ZINC000110375116   -0.1700
      6 C6         -8.4785    1.2465   52.1628 C.2     1  ZINC000110375116    0.5100
      7 O7         -8.4966    0.0510   51.9598 O.2     1  ZINC000110375116   -0.5300
      8 C8         -7.1629    1.9768   52.2467 C.3     1  ZINC000110375116   -0.1400
      9 C9         -6.1063    1.2183   51.4410 C.3     1  ZINC000110375116   -0.0900
     10 C10        -4.8017    2.0175   51.4311 C.3     1  ZINC000110375116   -0.1400
     11 C11        -3.7386    1.2347   50.7046 C.2     1  ZINC000110375116    0.5200
     12 O12        -4.0327    0.2189   50.1107 O.2     1  ZINC000110375116   -0.5300
     13 N13        -2.4607    1.6633   50.7147 N.am    1  ZINC000110375116   -0.6200
     14 C14        -1.4143    0.9124   50.0069 C.3     1  ZINC000110375116    0.0900
     15 C15        -0.7088    1.8591   49.0280 C.3     1  ZINC000110375116    0.1000
     16 N16        -0.3371    3.0859   49.7465 N.am    1  ZINC000110375116   -1.0000
     17 S17         1.2327    3.6131   49.7581 S.o2    1  ZINC000110375116    2.7000
     18 O18         1.6383    3.6956   48.3987 O.2     1  ZINC000110375116   -0.9400
     19 O19         1.2787    4.7172   50.6514 O.2     1  ZINC000110375116   -0.9500
     20 C20         2.2052    2.3395   50.4909 C.ar    1  ZINC000110375116   -0.7400
     21 C21         2.5713    2.4160   51.8257 C.ar    1  ZINC000110375116    0.0200
     22 C22         3.3366    1.3905   52.3601 C.ar    1  ZINC000110375116   -0.1900
     23 C23         3.7062    0.3338   51.5500 C.ar    1  ZINC000110375116    0.1500
     24 N24         3.3398    0.2941   50.2838 N.ar    1  ZINC000110375116   -0.4900
     25 C25         2.6078    1.2486   49.7435 C.ar    1  ZINC000110375116    0.2000
     26 C26        -1.3835    3.8368   50.4543 C.3     1  ZINC000110375116    0.1000
     27 C27        -2.0900    2.8932   51.4286 C.3     1  ZINC000110375116    0.1000
     28 H28       -12.2661    0.1963   53.5679 H       1  ZINC000110375116    0.0700
     29 H29       -10.5482    0.0510   54.0107 H       1  ZINC000110375116    0.0600
     30 H30       -11.4147    1.5794   54.2962 H       1  ZINC000110375116    0.0600
     31 H31       -10.8138    0.3572   51.5645 H       1  ZINC000110375116    0.0800
     32 H32       -11.6803    1.8856   51.8499 H       1  ZINC000110375116    0.0800
     33 H33       -10.4813    3.6478   53.1526 H       1  ZINC000110375116    0.0800
     34 H34        -8.7025    3.6308   53.0940 H       1  ZINC000110375116    0.0800
     35 H35        -9.6340    5.1843   51.4005 H       1  ZINC000110375116    0.0700
     36 H36        -8.7821    3.8284   50.6234 H       1  ZINC000110375116    0.0500
     37 H37       -10.5610    3.8454   50.6822 H       1  ZINC000110375116    0.0600
     38 H38        -7.2783    2.9813   51.8397 H       1  ZINC000110375116    0.0900
     39 H39        -6.8487    2.0408   53.2885 H       1  ZINC000110375116    0.0900
     40 H40        -5.9320    0.2438   51.8972 H       1  ZINC000110375116    0.0800
     41 H41        -6.4573    1.0831   50.4180 H       1  ZINC000110375116    0.0800
     42 H42        -4.9623    2.9691   50.9244 H       1  ZINC000110375116    0.1000
     43 H43        -4.4805    2.2015   52.4564 H       1  ZINC000110375116    0.1000
     44 H44        -0.6923    0.5250   50.7258 H       1  ZINC000110375116    0.0800
     45 H45        -1.8654    0.0867   49.4565 H       1  ZINC000110375116    0.1000
     46 H46         0.1877    1.3786   48.6363 H       1  ZINC000110375116    0.1100
     47 H47        -1.3828    2.1056   48.2075 H       1  ZINC000110375116    0.0800
     48 H48         2.2679    3.2546   52.4350 H       1  ZINC000110375116    0.1500
     49 H49         3.6401    1.4174   53.3962 H       1  ZINC000110375116    0.1500
     50 H50         4.3026   -0.4687   51.9584 H       1  ZINC000110375116    0.1700
     51 H51         2.3269    1.1816   48.7029 H       1  ZINC000110375116    0.1700
     52 H52        -0.9325    4.6626   51.0047 H       1  ZINC000110375116    0.1100
     53 H53        -2.1055    4.2242   49.7355 H       1  ZINC000110375116    0.0800
     54 H54        -2.9863    3.3750   51.8195 H       1  ZINC000110375116    0.1100
     55 H55        -1.4176    2.6447   52.2497 H       1  ZINC000110375116    0.0800
@<TRIPOS>BOND
     1     1     2    1
     2     1    28    1
     3     1    29    1
     4     1    30    1
     5     2     3    1
     6     2    31    1
     7     2    32    1
     8     3     4    1
     9     3     6   am
    10     4     5    1
    11     4    33    1
    12     4    34    1
    13     5    35    1
    14     5    36    1
    15     5    37    1
    16     6     7    2
    17     6     8    1
    18     8     9    1
    19     8    38    1
    20     8    39    1
    21     9    10    1
    22     9    40    1
    23     9    41    1
    24    10    11    1
    25    10    42    1
    26    10    43    1
    27    11    12    2
    28    11    13   am
    29    13    27    1
    30    13    14    1
    31    14    15    1
    32    14    44    1
    33    14    45    1
    34    15    16    1
    35    15    46    1
    36    15    47    1
    37    16    17   am
    38    16    26    1
    39    17    18    2
    40    17    19    2
    41    17    20    1
    42    20    25   ar
    43    20    21   ar
    44    21    22   ar
    45    21    48    1
    46    22    23   ar
    47    22    49    1
    48    23    24   ar
    49    23    50    1
    50    24    25   ar
    51    25    51    1
    52    26    27    1
    53    26    52    1
    54    26    53    1
    55    27    54    1
    56    27    55    1
@<TRIPOS>SUBSTRUCTURE
     1 ZINC000110375116        1 TEMP              0 ****  ****    0 ROOT


##########                                Name:    ZINC000281257088
##########                DOCK_Rotatable_Bonds:                   8
##########                         Heavy_Atoms:                  27
##########                    Molecular_Weight:             395.541
##########                DOCK_Rotatable_Bonds:                   8
##########                       Formal_Charge:          -0.0200005
##########                     HBond_Acceptors:                   7
##########                        HBond_Donors:                   1
##########                         Heavy_Atoms:                  27
##########                          Grid_Score:          -33.880348
##########                     Grid_vdw_energy:          -33.043167
##########                      Grid_es_energy:           -0.837181
##########           Internal_energy_repulsive:           24.812445

@<TRIPOS>MOLECULE
ZINC000281257088
 57 58 1 0 0
SMALL
USER_CHARGES


@<TRIPOS>ATOM
      1 C1         -5.3465   -0.0172   50.3380 C.3     1  ZINC000281257088   -0.0700
      2 C2         -4.0960    0.7907   50.5711 C.2     1  ZINC000281257088    0.1000
      3 N3         -2.9306    0.5782   50.0155 N.2     1  ZINC000281257088   -0.3000
      4 N4         -2.0356    1.5446   50.4925 N.pl3   1  ZINC000281257088   -0.3700
      5 C5         -0.6232    1.6679   50.1236 C.3     1  ZINC000281257088    0.1500
      6 C6         -0.3535    0.8518   48.8578 C.3     1  ZINC000281257088   -0.6400
      7 S7         -0.6892    1.8734   47.3969 S.o2    1  ZINC000281257088    2.4300
      8 C8         -0.2690    0.7412   46.0433 C.3     1  ZINC000281257088   -0.6500
      9 O9         -2.0831    2.1443   47.3443 O.2     1  ZINC000281257088   -0.9300
     10 O10         0.2293    2.9576   47.3818 O.2     1  ZINC000281257088   -0.9300
     11 C11        -2.7043    2.3419   51.3517 C.2     1  ZINC000281257088    0.0900
     12 C12        -2.1321    3.5168   52.1022 C.3     1  ZINC000281257088   -0.1000
     13 C13        -3.9821    1.9009   51.4143 C.2     1  ZINC000281257088   -0.2300
     14 C14        -5.0852    2.4955   52.2513 C.3     1  ZINC000281257088    0.1400
     15 N15        -5.9962    3.2601   51.3892 N.3     1  ZINC000281257088   -0.6700
     16 C16        -7.0258    3.9419   52.1847 C.3     1  ZINC000281257088    0.1400
     17 H17        -6.5539    4.4720   53.0121 H       1  ZINC000281257088    0.0500
     18 C18        -7.9961    2.9249   52.7281 C.ar    1  ZINC000281257088   -0.0800
     19 C19        -8.3574    1.8350   51.9584 C.ar    1  ZINC000281257088   -0.0600
     20 C20        -9.2472    0.9016   52.4557 C.ar    1  ZINC000281257088   -0.1600
     21 C21        -9.7764    1.0584   53.7255 C.ar    1  ZINC000281257088    0.1000
     22 F22       -10.6458    0.1464   54.2128 F       1  ZINC000281257088   -0.1400
     23 C23        -9.4134    2.1502   54.4957 C.ar    1  ZINC000281257088   -0.1600
     24 C24        -8.5198    3.0796   53.9982 C.ar    1  ZINC000281257088   -0.0900
     25 C25        -7.7755    4.9404   51.3006 C.3     1  ZINC000281257088   -0.0600
     26 C26        -8.8866    5.6077   52.1136 C.3     1  ZINC000281257088   -0.1400
     27 C27        -6.8013    6.0072   50.7967 C.3     1  ZINC000281257088   -0.1400
     28 C28        -8.3884    4.2049   50.1071 C.3     1  ZINC000281257088   -0.1500
     29 H29        -5.9022    0.4066   49.5016 H       1  ZINC000281257088    0.0800
     30 H30        -5.0758   -1.0481   50.1094 H       1  ZINC000281257088    0.0700
     31 H31        -5.9660    0.0053   51.2346 H       1  ZINC000281257088    0.0800
     32 H32        -0.3863    2.7155   49.9378 H       1  ZINC000281257088    0.1100
     33 H33        -0.0013    1.2934   50.9367 H       1  ZINC000281257088    0.1100
     34 H34         0.6886    0.5327   48.8464 H       1  ZINC000281257088    0.1400
     35 H35        -1.0019   -0.0243   48.8453 H       1  ZINC000281257088    0.1400
     36 H36        -0.9020   -0.1443   46.1007 H       1  ZINC000281257088    0.1300
     37 H37        -0.4294    1.2414   45.0882 H       1  ZINC000281257088    0.1300
     38 H38         0.7769    0.4462   46.1278 H       1  ZINC000281257088    0.1300
     39 H39        -2.2508    4.4215   51.5061 H       1  ZINC000281257088    0.0800
     40 H40        -2.6585    3.6341   53.0495 H       1  ZINC000281257088    0.0900
     41 H41        -1.0730    3.3444   52.2940 H       1  ZINC000281257088    0.0700
     42 H42        -5.6377    1.6961   52.7451 H       1  ZINC000281257088    0.0800
     43 H43        -4.6547    3.1575   53.0026 H       1  ZINC000281257088    0.0300
     44 H44        -5.4868    3.9173   50.8176 H       1  ZINC000281257088    0.3400
     45 H45        -7.9445    1.7129   50.9679 H       1  ZINC000281257088    0.1400
     46 H46        -9.5298    0.0505   51.8538 H       1  ZINC000281257088    0.1300
     47 H47        -9.8258    2.2736   55.4862 H       1  ZINC000281257088    0.1300
     48 H48        -8.2362    3.9312   54.5989 H       1  ZINC000281257088    0.1300
     49 H49        -8.4500    6.1317   52.9638 H       1  ZINC000281257088    0.0600
     50 H50        -9.4207    6.3191   51.4837 H       1  ZINC000281257088    0.0500
     51 H51        -9.5806    4.8477   52.4726 H       1  ZINC000281257088    0.0600
     52 H52        -6.0097    5.5318   50.2174 H       1  ZINC000281257088    0.0500
     53 H53        -7.3354    6.7185   50.1667 H       1  ZINC000281257088    0.0600
     54 H54        -6.3647    6.5312   51.6469 H       1  ZINC000281257088    0.0600
     55 H55        -9.1392    3.4990   50.4620 H       1  ZINC000281257088    0.0500
     56 H56        -8.8557    4.9262   49.4368 H       1  ZINC000281257088    0.0600
     57 H57        -7.6065    3.6654   49.5724 H       1  ZINC000281257088    0.0600
@<TRIPOS>BOND
     1     1     2    1
     2     1    29    1
     3     1    30    1
     4     1    31    1
     5     2    13    1
     6     2     3    2
     7     3     4    1
     8     4     5    1
     9     4    11    1
    10     5     6    1
    11     5    32    1
    12     5    33    1
    13     6     7    1
    14     6    34    1
    15     6    35    1
    16     7     8    1
    17     7     9    2
    18     7    10    2
    19     8    36    1
    20     8    37    1
    21     8    38    1
    22    11    12    1
    23    11    13    2
    24    12    39    1
    25    12    40    1
    26    12    41    1
    27    13    14    1
    28    14    15    1
    29    14    42    1
    30    14    43    1
    31    15    16    1
    32    15    44    1
    33    16    17    1
    34    16    18    1
    35    16    25    1
    36    18    24   ar
    37    18    19   ar
    38    19    20   ar
    39    19    45    1
    40    20    21   ar
    41    20    46    1
    42    21    22    1
    43    21    23   ar
    44    23    24   ar
    45    23    47    1
    46    24    48    1
    47    25    26    1
    48    25    27    1
    49    25    28    1
    50    26    49    1
    51    26    50    1
    52    26    51    1
    53    27    52    1
    54    27    53    1
    55    27    54    1
    56    28    55    1
    57    28    56    1
    58    28    57    1
@<TRIPOS>SUBSTRUCTURE
     1 ZINC000281257088        1 TEMP              0 ****  ****    0 ROOT


##########                                Name:     oleObject52.pdb
##########                DOCK_Rotatable_Bonds:                  10
##########                         Heavy_Atoms:                  38
##########                    Molecular_Weight:              533.07
##########                DOCK_Rotatable_Bonds:                  10
##########                       Formal_Charge:         0.000300027
##########                     HBond_Acceptors:                   8
##########                        HBond_Donors:                   0
##########                         Heavy_Atoms:                  38
##########                          Grid_Score:          -33.857571
##########                     Grid_vdw_energy:          -33.708107
##########                      Grid_es_energy:           -0.149465
##########           Internal_energy_repulsive:           36.760925

@<TRIPOS>MOLECULE
oleObject52.pdb
 71 74 1 0 0
SMALL
NO_CHARGES


@<TRIPOS>ATOM
      1 C          -9.8622    5.6219   56.9957 C.ar    1  UNL        -0.0596
      2 C          -9.5359    4.5263   57.8091 C.ar    1  UNL        -0.0314
      3 C          -9.3071    3.2564   57.2377 C.ar    1  UNL         0.0800
      4 C          -9.4039    3.0867   55.8369 C.ar    1  UNL         0.0089
      5 C          -9.7389    4.1972   55.0325 C.ar    1  UNL        -0.0541
      6 C          -9.9649    5.4566   55.6078 C.ar    1  UNL        -0.0617
      7 C          -9.1584    1.7000   55.2228 C.3     1  UNL         0.0953
      8 C         -10.1757    0.6532   55.7100 C.ar    1  UNL         0.0684
      9 C         -11.5685    0.9161   55.7317 C.ar    1  UNL        -0.0272
     10 C         -12.4351   -0.0983   56.1802 C.ar    1  UNL        -0.0559
     11 C         -11.8965   -1.3276   56.5863 C.ar    1  UNL        -0.0435
     12 C         -10.5062   -1.5041   56.5286 C.ar    1  UNL         0.0272
     13 N          -9.6692   -0.5404   56.1014 N.ar    1  UNL        -0.2587
     14 C         -12.1531    2.2466   55.2730 C.3     1  UNL        -0.0379
     15 N          -8.9472    1.7127   53.7470 N.am    1  UNL        -0.2917
     16 C          -7.8951    2.4489   53.1918 C.2     1  UNL         0.2180
     17 O          -6.9954    2.8687   53.9006 O.2     1  UNL        -0.2772
     18 C          -7.7378    2.4145   51.6501 C.3     1  UNL         0.0385
     19 C          -7.0845    1.0988   51.1618 C.3     1  UNL        -0.0289
     20 C          -5.5716    1.0536   51.4667 C.3     1  UNL        -0.0010
     21 N          -4.8629    2.2124   50.8756 N.4     1  UNL        -0.3010
     22 C          -5.4136    3.5113   51.3212 C.3     1  UNL        -0.0010
     23 C          -6.9409    3.6233   51.0915 C.3     1  UNL        -0.0289
     24 C          -3.3918    2.1700   51.0306 C.3     1  UNL         0.0222
     25 C          -2.6650    1.5347   49.8273 C.3     1  UNL         0.0661
     26 O          -1.4027    2.2074   49.6718 O.3     1  UNL        -0.3432
     27 C          -0.4821    1.8891   48.6923 C.ar    1  UNL         0.0937
     28 C          -0.1971    0.5535   48.3385 C.ar    1  UNL        -0.0289
     29 C           0.7465    0.2733   47.3362 C.ar    1  UNL        -0.0417
     30 C           1.4134    1.3213   46.6786 C.ar    1  UNL         0.0537
     31 C           1.1322    2.6531   47.0276 C.ar    1  UNL        -0.0230
     32 C           0.1890    2.9363   48.0295 C.ar    1  UNL         0.0721
     33 CL         -0.1342    4.6111   48.4370 Cl      1  UNL        -0.0814
     34 C           2.3767    1.0327   45.6554 C.1     1  UNL         0.0992
     35 N           3.1526    0.7896   44.8330 N.1     1  UNL        -0.1924
     36 C          -9.9130    0.9533   52.9233 C.3     1  UNL         0.0037
     37 O          -8.9924    2.1583   58.0200 O.3     1  UNL        -0.3490
     38 C          -8.8905    2.2014   59.4533 C.3     1  UNL         0.0422
     39 H         -10.0373    6.5967   57.4415 H       1  UNL         0.0624
     40 H          -9.4649    4.6772   58.8809 H       1  UNL         0.0651
     41 H          -9.8276    4.0933   53.9566 H       1  UNL         0.0627
     42 H         -10.2203    6.3033   54.9772 H       1  UNL         0.0623
     43 H          -8.1955    1.3868   55.6413 H       1  UNL         0.0627
     44 H         -13.5093    0.0606   56.2088 H       1  UNL         0.0627
     45 H         -12.5421   -2.1286   56.9341 H       1  UNL         0.0639
     46 H         -10.0482   -2.4451   56.8304 H       1  UNL         0.0840
     47 H         -11.6581    3.0884   55.7686 H       1  UNL         0.0280
     48 H         -13.2242    2.3184   55.4985 H       1  UNL         0.0280
     49 H         -12.0339    2.3732   54.1896 H       1  UNL         0.0280
     50 H          -8.7384    2.4808   51.2102 H       1  UNL         0.0402
     51 H          -7.2254    1.0122   50.0766 H       1  UNL         0.0288
     52 H          -7.5816    0.2299   51.6081 H       1  UNL         0.0288
     53 H          -5.1768    0.1132   51.0652 H       1  UNL         0.0431
     54 H          -5.4209    1.0434   52.5544 H       1  UNL         0.0431
     55 H          -4.9211    4.3283   50.7783 H       1  UNL         0.0431
     56 H          -5.1945    3.6540   52.3868 H       1  UNL         0.0431
     57 H          -7.1201    3.6906   50.0106 H       1  UNL         0.0288
     58 H          -7.3166    4.5578   51.5275 H       1  UNL         0.0288
     59 H          -3.1278    1.6168   51.9416 H       1  UNL         0.0455
     60 H          -3.0123    3.1937   51.1455 H       1  UNL         0.0455
     61 H          -3.2764    1.6601   48.9245 H       1  UNL         0.0586
     62 H          -2.4994    0.4654   50.0056 H       1  UNL         0.0586
     63 H          -0.6986   -0.2736   48.8306 H       1  UNL         0.0651
     64 H           0.9581   -0.7596   47.0715 H       1  UNL         0.0638
     65 H           1.6436    3.4691   46.5237 H       1  UNL         0.0653
     66 H         -10.8852    0.8887   53.4251 H       1  UNL         0.0433
     67 H          -9.5365   -0.0613   52.7443 H       1  UNL         0.0433
     68 H         -10.0782    1.4578   51.9642 H       1  UNL         0.0433
     69 H          -8.6397    1.2050   59.8372 H       1  UNL         0.0535
     70 H          -9.8445    2.5145   59.8963 H       1  UNL         0.0535
     71 H          -8.1029    2.9005   59.7613 H       1  UNL         0.0535
@<TRIPOS>BOND
     1     1     2   ar
     2     1     6   ar
     3     1    39    1
     4     2     3   ar
     5     2    40    1
     6     3     4   ar
     7     3    37    1
     8     4     5   ar
     9     4     7    1
    10     5     6   ar
    11     5    41    1
    12     6    42    1
    13     7     8    1
    14     7    15    1
    15     7    43    1
    16     8     9   ar
    17     8    13   ar
    18     9    10   ar
    19     9    14    1
    20    10    11   ar
    21    10    44    1
    22    11    12   ar
    23    11    45    1
    24    12    13   ar
    25    12    46    1
    26    14    47    1
    27    14    48    1
    28    14    49    1
    29    15    16   am
    30    15    36    1
    31    16    17    2
    32    16    18    1
    33    18    19    1
    34    18    23    1
    35    18    50    1
    36    19    20    1
    37    19    51    1
    38    19    52    1
    39    20    21    1
    40    20    53    1
    41    20    54    1
    42    21    22    1
    43    21    24    1
    44    22    23    1
    45    22    55    1
    46    22    56    1
    47    23    57    1
    48    23    58    1
    49    24    25    1
    50    24    59    1
    51    24    60    1
    52    25    26    1
    53    25    61    1
    54    25    62    1
    55    26    27    1
    56    27    28   ar
    57    27    32   ar
    58    28    29   ar
    59    28    63    1
    60    29    30   ar
    61    29    64    1
    62    30    31   ar
    63    30    34    1
    64    31    32   ar
    65    31    65    1
    66    32    33    1
    67    34    35    3
    68    36    66    1
    69    36    67    1
    70    36    68    1
    71    37    38    1
    72    38    69    1
    73    38    70    1
    74    38    71    1
@<TRIPOS>SUBSTRUCTURE
     1 UNL         1 TEMP              0 ****  ****    0 ROOT


##########                                Name:    ZINC000550217006
##########                DOCK_Rotatable_Bonds:                   7
##########                         Heavy_Atoms:                  27
##########                    Molecular_Weight:             367.404
##########                DOCK_Rotatable_Bonds:                   7
##########                       Formal_Charge:          0.00999951
##########                     HBond_Acceptors:                   7
##########                        HBond_Donors:                   3
##########                         Heavy_Atoms:                  27
##########                          Grid_Score:          -33.856960
##########                     Grid_vdw_energy:          -31.497433
##########                      Grid_es_energy:           -2.359527
##########           Internal_energy_repulsive:           10.200134

@<TRIPOS>MOLECULE
ZINC000550217006
 48 50 1 0 0
SMALL
USER_CHARGES


@<TRIPOS>ATOM
      1 C1         -2.4708    5.9252   56.9782 C.3     1  ZINC000550217006   -0.1500
      2 C2         -2.9099    4.6075   56.3364 C.3     1  ZINC000550217006    0.0500
      3 O3         -1.8225    4.0545   55.5923 O.3     1  ZINC000550217006   -0.3100
      4 C4         -0.8233    3.4685   56.3031 C.ar    1  ZINC000550217006    0.1400
      5 C5         -1.1154    2.4621   57.2120 C.ar    1  ZINC000550217006   -0.2100
      6 C6         -0.0977    1.8675   57.9331 C.ar    1  ZINC000550217006   -0.0800
      7 C7          1.2105    2.2750   57.7497 C.ar    1  ZINC000550217006   -0.1600
      8 C8          1.5041    3.2784   56.8444 C.ar    1  ZINC000550217006   -0.0700
      9 C9          0.4911    3.8717   56.1167 C.ar    1  ZINC000550217006   -0.1200
     10 C10         0.8119    4.9647   55.1300 C.3     1  ZINC000550217006   -0.0800
     11 C11         1.1733    4.3428   53.7796 C.3     1  ZINC000550217006    0.1300
     12 N12         0.0601    3.5142   53.3101 N.am    1  ZINC000550217006   -0.7200
     13 C13        -0.5433    3.7972   52.1387 C.2     1  ZINC000550217006    0.5600
     14 O14        -0.1649    4.7406   51.4726 O.2     1  ZINC000550217006   -0.5300
     15 C15        -1.6672    2.9587   51.6632 C.ar    1  ZINC000550217006   -0.0800
     16 C16        -1.4296    1.9086   50.7731 C.ar    1  ZINC000550217006   -0.1000
     17 C17        -2.4750    1.1341   50.3335 C.ar    1  ZINC000550217006   -0.0500
     18 C18        -3.7868    1.3839   50.7695 C.ar    1  ZINC000550217006   -0.1300
     19 C19        -4.0276    2.4292   51.6606 C.ar    1  ZINC000550217006    0.1800
     20 C20        -2.9598    3.2107   52.1055 C.ar    1  ZINC000550217006   -0.0900
     21 N21        -5.2847    2.7393   52.1504 N.am    1  ZINC000550217006   -0.6600
     22 C22        -6.4120    2.7425   51.4455 C.2     1  ZINC000550217006    0.5100
     23 O23        -7.4437    3.0788   51.9872 O.2     1  ZINC000550217006   -0.5100
     24 C24        -6.4455    2.3417   49.9961 C.3     1  ZINC000550217006    0.0900
     25 N25        -6.0610    0.9345   49.8861 N.am    1  ZINC000550217006   -0.7100
     26 C26        -4.8508    0.5132   50.2489 C.2     1  ZINC000550217006    0.5600
     27 O27        -4.6092   -0.6733   50.1422 O.2     1  ZINC000550217006   -0.5200
     28 H28        -2.1698    6.6260   56.1995 H       1  ZINC000550217006    0.0700
     29 H29        -3.3002    6.3469   57.5458 H       1  ZINC000550217006    0.0800
     30 H30        -1.6296    5.7413   57.6464 H       1  ZINC000550217006    0.0700
     31 H31        -3.2108    3.9066   57.1151 H       1  ZINC000550217006    0.0600
     32 H32        -3.7512    4.7914   55.6682 H       1  ZINC000550217006    0.0600
     33 H33        -2.1373    2.1439   57.3562 H       1  ZINC000550217006    0.1300
     34 H34        -0.3246    1.0840   58.6409 H       1  ZINC000550217006    0.1300
     35 H35         2.0045    1.8093   58.3145 H       1  ZINC000550217006    0.1300
     36 H36         2.5269    3.5953   56.7032 H       1  ZINC000550217006    0.1300
     37 H37        -0.0564    5.6128   55.0108 H       1  ZINC000550217006    0.0800
     38 H38         1.6546    5.5503   55.4975 H       1  ZINC000550217006    0.0800
     39 H39         1.3679    5.1340   53.0556 H       1  ZINC000550217006    0.0700
     40 H40         2.0643    3.7249   53.8910 H       1  ZINC000550217006    0.0700
     41 H41        -0.2427    2.7618   53.8423 H       1  ZINC000550217006    0.4000
     42 H42        -0.4253    1.7063   50.4310 H       1  ZINC000550217006    0.1400
     43 H43        -2.2865    0.3240   49.6447 H       1  ZINC000550217006    0.1500
     44 H44        -3.1414    4.0234   52.7933 H       1  ZINC000550217006    0.1500
     45 H45        -5.3488    2.9742   53.0894 H       1  ZINC000550217006    0.4200
     46 H46        -7.4531    2.4768   49.6031 H       1  ZINC000550217006    0.1300
     47 H47        -5.7454    2.9569   49.4309 H       1  ZINC000550217006    0.1000
     48 H48        -6.7022    0.2936   49.5413 H       1  ZINC000550217006    0.4200
@<TRIPOS>BOND
     1     1     2    1
     2     1    28    1
     3     1    29    1
     4     1    30    1
     5     2     3    1
     6     2    31    1
     7     2    32    1
     8     3     4    1
     9     4     9   ar
    10     4     5   ar
    11     5     6   ar
    12     5    33    1
    13     6     7   ar
    14     6    34    1
    15     7     8   ar
    16     7    35    1
    17     8     9   ar
    18     8    36    1
    19     9    10    1
    20    10    11    1
    21    10    37    1
    22    10    38    1
    23    11    12    1
    24    11    39    1
    25    11    40    1
    26    12    13   am
    27    12    41    1
    28    13    14    2
    29    13    15    1
    30    15    20   ar
    31    15    16   ar
    32    16    17   ar
    33    16    42    1
    34    17    18   ar
    35    17    43    1
    36    18    26    1
    37    18    19   ar
    38    19    20   ar
    39    19    21    1
    40    20    44    1
    41    21    22   am
    42    21    45    1
    43    22    23    2
    44    22    24    1
    45    24    25    1
    46    24    46    1
    47    24    47    1
    48    25    26   am
    49    25    48    1
    50    26    27    2
@<TRIPOS>SUBSTRUCTURE
     1 ZINC000550217006        1 TEMP              0 ****  ****    0 ROOT


##########                                Name:     oleObject17.pdb
##########                DOCK_Rotatable_Bonds:                   8
##########                         Heavy_Atoms:                  29
##########                    Molecular_Weight:             435.393
##########                DOCK_Rotatable_Bonds:                   8
##########                       Formal_Charge:         0.000400059
##########                     HBond_Acceptors:                   6
##########                        HBond_Donors:                   0
##########                         Heavy_Atoms:                  29
##########                          Grid_Score:          -33.848438
##########                     Grid_vdw_energy:          -33.959145
##########                      Grid_es_energy:            0.110707
##########           Internal_energy_repulsive:           22.936146

@<TRIPOS>MOLECULE
oleObject17.pdb
 57 59 1 0 0
SMALL
NO_CHARGES


@<TRIPOS>ATOM
      1 C           1.8283    1.7025   43.2919 C.3     1  UNL         0.0391
      2 C           3.0546    0.8033   43.1215 C.ar    1  UNL        -0.0277
      3 C           3.3960    0.1964   41.8865 C.ar    1  UNL        -0.0463
      4 C           4.5235   -0.6455   41.8170 C.ar    1  UNL        -0.0590
      5 C           5.3108   -0.8856   42.9525 C.ar    1  UNL        -0.0620
      6 C           4.9849   -0.2726   44.1695 C.ar    1  UNL        -0.0619
      7 C           3.8667    0.5705   44.2490 C.ar    1  UNL        -0.0572
      8 C           2.5848    0.4282   40.6164 C.3     1  UNL        -0.0394
      9 N           2.0152    2.7316   44.3371 N.am    1  UNL        -0.3003
     10 C           1.7234    2.4606   45.6737 C.2     1  UNL         0.2175
     11 O           1.5803    3.3795   46.4624 O.2     1  UNL        -0.2772
     12 C           1.1987    1.0365   45.9964 C.3     1  UNL         0.0384
     13 C          -0.3451    0.9337   45.9087 C.3     1  UNL        -0.0289
     14 C          -1.0269    1.7106   47.0517 C.3     1  UNL        -0.0010
     15 N          -0.5755    1.2424   48.3804 N.4     1  UNL        -0.3010
     16 C           0.8952    1.2326   48.5608 C.3     1  UNL        -0.0010
     17 C           1.6415    0.5311   47.3967 C.3     1  UNL        -0.0289
     18 C          -1.3103    1.8680   49.5036 C.3     1  UNL         0.0222
     19 C          -2.7038    1.2467   49.7552 C.3     1  UNL         0.0661
     20 O          -3.3960    2.0607   50.7169 O.3     1  UNL        -0.3432
     21 C          -4.6885    1.7979   51.1292 C.ar    1  UNL         0.0937
     22 C          -5.4786    0.8004   50.5181 C.ar    1  UNL        -0.0288
     23 C          -6.7856    0.5572   50.9712 C.ar    1  UNL        -0.0408
     24 C          -7.3123    1.3088   52.0332 C.ar    1  UNL         0.0422
     25 C          -6.5346    2.3053   52.6436 C.ar    1  UNL        -0.0221
     26 C          -5.2266    2.5501   52.1930 C.ar    1  UNL         0.0723
     27 CL         -4.2796    3.7982   52.9810 Cl      1  UNL        -0.0814
     28 CL         -8.9415    1.0030   52.5965 Cl      1  UNL        -0.0843
     29 C           2.5129    4.0411   43.8777 C.3     1  UNL         0.0031
     30 H           0.9390    1.1143   43.5444 H       1  UNL         0.0520
     31 H           1.6203    2.1869   42.3296 H       1  UNL         0.0520
     32 H           4.7936   -1.1194   40.8777 H       1  UNL         0.0626
     33 H           6.1755   -1.5400   42.8867 H       1  UNL         0.0623
     34 H           5.5956   -0.4514   45.0497 H       1  UNL         0.0623
     35 H           3.6210    1.0367   45.1986 H       1  UNL         0.0626
     36 H           2.4844    1.4988   40.3999 H       1  UNL         0.0280
     37 H           1.5793    0.0009   40.7031 H       1  UNL         0.0280
     38 H           3.0600   -0.0333   39.7420 H       1  UNL         0.0280
     39 H           1.6312    0.3566   45.2529 H       1  UNL         0.0402
     40 H          -0.6409   -0.1215   45.9721 H       1  UNL         0.0288
     41 H          -0.7129    1.2981   44.9439 H       1  UNL         0.0288
     42 H          -2.1145    1.5919   46.9631 H       1  UNL         0.0431
     43 H          -0.7963    2.7752   46.9311 H       1  UNL         0.0431
     44 H           1.1474    0.7213   49.4985 H       1  UNL         0.0431
     45 H           1.2641    2.2608   48.6473 H       1  UNL         0.0431
     46 H           1.4445   -0.5469   47.4601 H       1  UNL         0.0288
     47 H           2.7249    0.6567   47.5194 H       1  UNL         0.0288
     48 H          -1.4330    2.9411   49.3088 H       1  UNL         0.0455
     49 H          -0.7158    1.7715   50.4212 H       1  UNL         0.0455
     50 H          -2.5943    0.2301   50.1497 H       1  UNL         0.0586
     51 H          -3.2713    1.2048   48.8177 H       1  UNL         0.0586
     52 H          -5.0935    0.2097   49.6933 H       1  UNL         0.0651
     53 H          -7.3886   -0.2125   50.4977 H       1  UNL         0.0639
     54 H          -6.9437    2.8866   53.4651 H       1  UNL         0.0655
     55 H           2.1211    4.2667   42.8778 H       1  UNL         0.0433
     56 H           3.6088    4.0344   43.8363 H       1  UNL         0.0433
     57 H           2.1810    4.8334   44.5598 H       1  UNL         0.0433
@<TRIPOS>BOND
     1     1     2    1
     2     1     9    1
     3     1    30    1
     4     1    31    1
     5     2     3   ar
     6     2     7   ar
     7     3     4   ar
     8     3     8    1
     9     4     5   ar
    10     4    32    1
    11     5     6   ar
    12     5    33    1
    13     6     7   ar
    14     6    34    1
    15     7    35    1
    16     8    36    1
    17     8    37    1
    18     8    38    1
    19     9    10   am
    20     9    29    1
    21    10    11    2
    22    10    12    1
    23    12    13    1
    24    12    17    1
    25    12    39    1
    26    13    14    1
    27    13    40    1
    28    13    41    1
    29    14    15    1
    30    14    42    1
    31    14    43    1
    32    15    16    1
    33    15    18    1
    34    16    17    1
    35    16    44    1
    36    16    45    1
    37    17    46    1
    38    17    47    1
    39    18    19    1
    40    18    48    1
    41    18    49    1
    42    19    20    1
    43    19    50    1
    44    19    51    1
    45    20    21    1
    46    21    22   ar
    47    21    26   ar
    48    22    23   ar
    49    22    52    1
    50    23    24   ar
    51    23    53    1
    52    24    25   ar
    53    24    28    1
    54    25    26   ar
    55    25    54    1
    56    26    27    1
    57    29    55    1
    58    29    56    1
    59    29    57    1
@<TRIPOS>SUBSTRUCTURE
     1 UNL         1 TEMP              0 ****  ****    0 ROOT


##########                                Name:    ZINC000898967786
##########                DOCK_Rotatable_Bonds:                   5
##########                         Heavy_Atoms:                  25
##########                    Molecular_Weight:             356.448
##########                DOCK_Rotatable_Bonds:                   5
##########                       Formal_Charge:        -2.38419e-07
##########                     HBond_Acceptors:                   7
##########                        HBond_Donors:                   1
##########                         Heavy_Atoms:                  25
##########                          Grid_Score:          -33.843632
##########                     Grid_vdw_energy:          -31.941778
##########                      Grid_es_energy:           -1.901855
##########           Internal_energy_repulsive:           10.788663

@<TRIPOS>MOLECULE
ZINC000898967786
 45 48 1 0 0
SMALL
USER_CHARGES


@<TRIPOS>ATOM
      1 C1         -1.2889    1.7562   50.1642 C.3     1  ZINC000898967786   -0.0800
      2 C2         -2.7586    1.5804   50.4475 C.2     1  ZINC000898967786    0.0900
      3 C3         -3.5626    2.4932   51.0356 C.2     1  ZINC000898967786   -0.1000
      4 C4         -3.1569    3.8599   51.5237 C.3     1  ZINC000898967786    0.2200
      5 N5         -2.8251    3.7910   52.9490 N.am    1  ZINC000898967786   -0.7400
      6 C6         -3.3786    4.6650   53.8128 C.2     1  ZINC000898967786    0.7100
      7 O7         -4.1533    5.5107   53.4092 O.2     1  ZINC000898967786   -0.5800
      8 N8         -3.0734    4.6015   55.1240 N.am    1  ZINC000898967786   -0.6300
      9 C9         -3.6651    5.5449   56.0860 C.3     1  ZINC000898967786    0.0900
     10 C10        -2.5348    6.1540   56.9234 C.3     1  ZINC000898967786    0.0500
     11 O11        -1.7374    5.1028   57.4736 O.3     1  ZINC000898967786   -0.3700
     12 C12        -1.0830    4.2912   56.4953 C.3     1  ZINC000898967786    0.1400
     13 H13        -0.4573    4.9191   55.8610 H       1  ZINC000898967786    0.0700
     14 C14        -0.2265    3.2619   57.1865 C.2     1  ZINC000898967786   -0.1100
     15 C15         1.1038    3.3488   57.2314 C.2     1  ZINC000898967786   -0.1800
     16 S16         1.7549    1.9757   58.1170 S.3     1  ZINC000898967786    0.1100
     17 C17         0.1361    1.3422   58.3844 C.2     1  ZINC000898967786   -0.2100
     18 C18        -0.7609    2.1577   57.8278 C.2     1  ZINC000898967786   -0.1300
     19 C19        -2.1433    3.5830   55.6368 C.3     1  ZINC000898967786    0.0900
     20 N20        -4.8142    1.9445   51.1048 N.pl3   1  ZINC000898967786   -0.3500
     21 C21        -6.0004    2.4095   51.5940 C.2     1  ZINC000898967786    0.0600
     22 C22        -7.1128    1.6475   51.5380 C.2     1  ZINC000898967786   -0.1400
     23 C23        -7.0637    0.3619   50.9740 C.2     1  ZINC000898967786   -0.1000
     24 C24        -5.8878   -0.1138   50.4827 C.2     1  ZINC000898967786   -0.0800
     25 C25        -4.7349    0.6943   50.5481 C.2     1  ZINC000898967786    0.2400
     26 N26        -3.4845    0.4990   50.1540 N.2     1  ZINC000898967786   -0.4900
     27 H27        -1.1598    2.1988   49.1764 H       1  ZINC000898967786    0.0800
     28 H28        -0.8498    2.4115   50.9163 H       1  ZINC000898967786    0.0700
     29 H29        -0.7944    0.7853   50.1947 H       1  ZINC000898967786    0.0800
     30 H30        -2.2862    4.2020   50.9641 H       1  ZINC000898967786    0.1000
     31 H31        -3.9809    4.5580   51.3758 H       1  ZINC000898967786    0.0700
     32 H32        -2.2071    3.1163   53.2709 H       1  ZINC000898967786    0.4000
     33 H33        -4.1912    6.3345   55.5496 H       1  ZINC000898967786    0.1100
     34 H34        -4.3610    5.0164   56.7377 H       1  ZINC000898967786    0.0800
     35 H35        -1.9143    6.7887   56.2906 H       1  ZINC000898967786    0.0600
     36 H36        -2.9604    6.7492   57.7314 H       1  ZINC000898967786    0.1100
     37 H37         1.6913    4.1407   56.7911 H       1  ZINC000898967786    0.1700
     38 H38        -0.0965    0.4344   58.9211 H       1  ZINC000898967786    0.1700
     39 H39        -1.8231    1.9666   57.8675 H       1  ZINC000898967786    0.1400
     40 H40        -2.6836    2.8577   56.2452 H       1  ZINC000898967786    0.0800
     41 H41        -1.6605    3.0754   54.8018 H       1  ZINC000898967786    0.0900
     42 H42        -6.0491    3.3962   52.0303 H       1  ZINC000898967786    0.1600
     43 H43        -8.0451    2.0277   51.9288 H       1  ZINC000898967786    0.1500
     44 H44        -7.9552   -0.2462   50.9311 H       1  ZINC000898967786    0.1500
     45 H45        -5.8381   -1.1009   50.0472 H       1  ZINC000898967786    0.1500
@<TRIPOS>BOND
     1     1     2    1
     2     1    27    1
     3     1    28    1
     4     1    29    1
     5     2    26    1
     6     2     3    2
     7     3     4    1
     8     3    20    1
     9     4     5    1
    10     4    30    1
    11     4    31    1
    12     5     6   am
    13     5    32    1
    14     6     7    2
    15     6     8   am
    16     8    19    1
    17     8     9    1
    18     9    10    1
    19     9    33    1
    20     9    34    1
    21    10    11    1
    22    10    35    1
    23    10    36    1
    24    11    12    1
    25    12    13    1
    26    12    14    1
    27    12    19    1
    28    14    18    1
    29    14    15    2
    30    15    16    1
    31    15    37    1
    32    16    17    1
    33    17    18    2
    34    17    38    1
    35    18    39    1
    36    19    40    1
    37    19    41    1
    38    20    25    1
    39    20    21    1
    40    21    22    2
    41    21    42    1
    42    22    23    1
    43    22    43    1
    44    23    24    2
    45    23    44    1
    46    24    25    1
    47    24    45    1
    48    25    26    2
@<TRIPOS>SUBSTRUCTURE
     1 ZINC000898967786        1 TEMP              0 ****  ****    0 ROOT


##########                                Name:    ZINC000288921983
##########                DOCK_Rotatable_Bonds:                   6
##########                         Heavy_Atoms:                  26
##########                    Molecular_Weight:             356.428
##########                DOCK_Rotatable_Bonds:                   6
##########                       Formal_Charge:           0.0199997
##########                     HBond_Acceptors:                   8
##########                        HBond_Donors:                   1
##########                         Heavy_Atoms:                  26
##########                          Grid_Score:          -33.826294
##########                     Grid_vdw_energy:          -33.227562
##########                      Grid_es_energy:           -0.598731
##########           Internal_energy_repulsive:           62.354973

@<TRIPOS>MOLECULE
ZINC000288921983
 50 53 1 0 0
SMALL
USER_CHARGES


@<TRIPOS>ATOM
      1 C1         -6.7645    0.8736   51.6441 C.3     1  ZINC000288921983   -0.1400
      2 C2         -6.1510    1.5262   50.4038 C.3     1  ZINC000288921983   -0.0500
      3 C3         -4.6675    1.6965   50.6074 C.ar    1  ZINC000288921983    0.3000
      4 N4         -3.8561    0.7236   50.2438 N.ar    1  ZINC000288921983   -0.5000
      5 C5         -2.5480    0.8343   50.4057 C.ar    1  ZINC000288921983    0.1300
      6 C6         -2.0332    1.9989   50.9689 C.ar    1  ZINC000288921983    0.0500
      7 N7         -0.6551    2.1572   51.1576 N.am    1  ZINC000288921983   -0.6700
      8 C8          0.1919    1.9739   50.1254 C.2     1  ZINC000288921983    0.7100
      9 O9         -0.2409    1.6708   49.0304 O.2     1  ZINC000288921983   -0.5500
     10 N10         1.5186    2.1263   50.3071 N.am    1  ZINC000288921983   -0.6200
     11 C11         2.0566    2.4922   51.6244 C.3     1  ZINC000288921983    0.1100
     12 C12         3.1272    1.4706   52.0208 C.3     1  ZINC000288921983   -0.1400
     13 C13         4.1801    1.3855   50.9134 C.3     1  ZINC000288921983   -0.1200
     14 C14         3.5205    0.9148   49.6152 C.3     1  ZINC000288921983   -0.1300
     15 C15         2.4548    1.9240   49.1929 C.3     1  ZINC000288921983    0.2700
     16 H16         2.9289    2.8736   48.9447 H       1  ZINC000288921983    0.1100
     17 C17         1.7116    1.4009   47.9909 C.2     1  ZINC000288921983    0.1700
     18 N18         1.4814    0.1495   47.7114 N.2     1  ZINC000288921983   -0.2500
     19 N19         0.8201    0.0726   46.6103 N.2     1  ZINC000288921983   -0.2700
     20 C20         0.6058    1.2724   46.1500 C.2     1  ZINC000288921983    0.1800
     21 C21        -0.1324    1.6231   44.8839 C.3     1  ZINC000288921983   -0.0300
     22 C22        -1.1760    2.7374   45.0678 C.3     1  ZINC000288921983   -0.1200
     23 C23        -0.0503    3.7360   44.7512 C.3     1  ZINC000288921983   -0.1400
     24 C24         0.6334    2.5984   43.9744 C.3     1  ZINC000288921983   -0.1200
     25 O25         1.1595    2.1398   47.0139 O.3     1  ZINC000288921983   -0.2200
     26 C26        -2.9249    3.0020   51.3391 C.ar    1  ZINC000288921983    0.1600
     27 N27        -4.2191    2.8160   51.1389 N.ar    1  ZINC000288921983   -0.5000
     28 H28        -7.8375    0.7505   51.4967 H       1  ZINC000288921983    0.0700
     29 H29        -6.3057   -0.1019   51.8060 H       1  ZINC000288921983    0.0600
     30 H30        -6.5874    1.5071   52.5132 H       1  ZINC000288921983    0.0600
     31 H31        -6.3281    0.8928   49.5346 H       1  ZINC000288921983    0.0900
     32 H32        -6.6098    2.5017   50.2419 H       1  ZINC000288921983    0.0900
     33 H33        -1.8890    0.0329   50.1058 H       1  ZINC000288921983    0.1700
     34 H34        -0.3099    2.3990   52.0313 H       1  ZINC000288921983    0.4100
     35 H35         2.5009    3.4863   51.5745 H       1  ZINC000288921983    0.0800
     36 H36         1.2539    2.4850   52.3618 H       1  ZINC000288921983    0.0800
     37 H37         3.6019    1.7834   52.9509 H       1  ZINC000288921983    0.0900
     38 H38         2.6643    0.4935   52.1587 H       1  ZINC000288921983    0.0700
     39 H39         4.6251    2.3684   50.7590 H       1  ZINC000288921983    0.0700
     40 H40         4.9561    0.6773   51.2039 H       1  ZINC000288921983    0.0800
     41 H41         4.2751    0.8319   48.8330 H       1  ZINC000288921983    0.0900
     42 H42         3.0539   -0.0572   49.7757 H       1  ZINC000288921983    0.0900
     43 H43        -0.5148    0.7468   44.3604 H       1  ZINC000288921983    0.1000
     44 H44        -1.9685    2.7212   44.3195 H       1  ZINC000288921983    0.1000
     45 H45        -1.5558    2.8161   46.0864 H       1  ZINC000288921983    0.0800
     46 H46        -0.3678    4.5662   44.1202 H       1  ZINC000288921983    0.0700
     47 H47         0.5061    4.0600   45.6307 H       1  ZINC000288921983    0.1000
     48 H48         1.7144    2.5649   44.1104 H       1  ZINC000288921983    0.0700
     49 H49         0.3356    2.5442   42.9272 H       1  ZINC000288921983    0.1000
     50 H50        -2.5650    3.9200   51.7795 H       1  ZINC000288921983    0.1800
@<TRIPOS>BOND
     1     1     2    1
     2     1    28    1
     3     1    29    1
     4     1    30    1
     5     2     3    1
     6     2    31    1
     7     2    32    1
     8     3    27   ar
     9     3     4   ar
    10     4     5   ar
    11     5     6   ar
    12     5    33    1
    13     6     7    1
    14     6    26   ar
    15     7     8   am
    16     7    34    1
    17     8     9    2
    18     8    10   am
    19    10    15    1
    20    10    11    1
    21    11    12    1
    22    11    35    1
    23    11    36    1
    24    12    13    1
    25    12    37    1
    26    12    38    1
    27    13    14    1
    28    13    39    1
    29    13    40    1
    30    14    15    1
    31    14    41    1
    32    14    42    1
    33    15    16    1
    34    15    17    1
    35    17    25    1
    36    17    18    2
    37    18    19    1
    38    19    20    2
    39    20    21    1
    40    20    25    1
    41    21    24    1
    42    21    22    1
    43    21    43    1
    44    22    23    1
    45    22    44    1
    46    22    45    1
    47    23    24    1
    48    23    46    1
    49    23    47    1
    50    24    48    1
    51    24    49    1
    52    26    27   ar
    53    26    50    1
@<TRIPOS>SUBSTRUCTURE
     1 ZINC000288921983        1 TEMP              0 ****  ****    0 ROOT


##########                                Name:    ZINC000508782983
##########                DOCK_Rotatable_Bonds:                   9
##########                         Heavy_Atoms:                  27
##########                    Molecular_Weight:             373.458
##########                DOCK_Rotatable_Bonds:                   9
##########                       Formal_Charge:          -0.0200006
##########                     HBond_Acceptors:                   9
##########                        HBond_Donors:                   2
##########                         Heavy_Atoms:                  27
##########                          Grid_Score:          -33.825802
##########                     Grid_vdw_energy:          -32.027916
##########                      Grid_es_energy:           -1.797884
##########           Internal_energy_repulsive:           14.855112

@<TRIPOS>MOLECULE
ZINC000508782983
 54 56 1 0 0
SMALL
USER_CHARGES


@<TRIPOS>ATOM
      1 C1         -9.8140    2.5959   58.1458 C.3     1  ZINC000508782983   -0.1500
      2 C2         -8.3279    2.3723   58.4330 C.3     1  ZINC000508782983   -0.1100
      3 C3         -8.1485    1.0603   59.1995 C.3     1  ZINC000508782983   -0.1500
      4 C4         -7.5584    2.3008   57.1126 C.3     1  ZINC000508782983    0.1000
      5 N5         -7.5535    3.6213   56.4781 N.pl3   1  ZINC000508782983   -0.4400
      6 C6         -6.7694    4.6874   56.8276 C.2     1  ZINC000508782983   -0.0400
      7 C7         -7.0846    5.6941   55.9904 C.2     1  ZINC000508782983   -0.0300
      8 N8         -8.0353    5.2544   55.1524 N.2     1  ZINC000508782983   -0.4700
      9 C9         -8.3175    4.0122   55.4355 C.2     1  ZINC000508782983    0.1700
     10 C10        -9.3345    3.1582   54.7229 C.3     1  ZINC000508782983    0.2100
     11 N11        -8.6449    2.1437   53.9219 N.am    1  ZINC000508782983   -0.6900
     12 C12        -8.7170    2.1836   52.5767 C.2     1  ZINC000508782983    0.5100
     13 O13        -9.3518    3.0608   52.0289 O.2     1  ZINC000508782983   -0.5100
     14 C14        -8.0151    1.1476   51.7596 C.2     1  ZINC000508782983    0.5100
     15 O15        -8.4630    0.0219   51.6926 O.2     1  ZINC000508782983   -0.5200
     16 N16        -6.8846    1.4637   51.0974 N.am    1  ZINC000508782983   -0.5800
     17 C17        -6.3213    2.8204   51.1702 C.3     1  ZINC000508782983    0.0800
     18 C18        -4.8402    2.7129   51.5480 C.3     1  ZINC000508782983    0.0400
     19 N19        -4.1629    1.8087   50.6090 N.3     1  ZINC000508782983   -0.5400
     20 C20        -2.7107    1.8117   50.8300 C.3     1  ZINC000508782983    0.1400
     21 C21        -2.0037    1.5433   49.5264 C.2     1  ZINC000508782983    0.2100
     22 N22        -2.1969    2.1893   48.4091 N.2     1  ZINC000508782983   -0.4900
     23 C23        -1.3966    1.6813   47.4603 C.2     1  ZINC000508782983   -0.0300
     24 C24        -0.6801    0.6826   48.0104 C.2     1  ZINC000508782983   -0.0500
     25 N25        -1.0610    0.5980   49.3225 N.pl3   1  ZINC000508782983   -0.5600
     26 C26        -4.7058    0.4465   50.6956 C.3     1  ZINC000508782983    0.0400
     27 C27        -6.1782    0.4594   50.2877 C.3     1  ZINC000508782983    0.1100
     28 H28       -10.3623    2.6468   59.0865 H       1  ZINC000508782983    0.0700
     29 H29        -9.9418    3.5306   57.5997 H       1  ZINC000508782983    0.0600
     30 H30       -10.1965    1.7698   57.5465 H       1  ZINC000508782983    0.0600
     31 H31        -7.9453    3.1984   59.0324 H       1  ZINC000508782983    0.0800
     32 H32        -8.6001    0.2448   58.6346 H       1  ZINC000508782983    0.0600
     33 H33        -7.0855    0.8621   59.3368 H       1  ZINC000508782983    0.0600
     34 H34        -8.6321    1.1392   60.1732 H       1  ZINC000508782983    0.0600
     35 H35        -6.5327    1.9870   57.3064 H       1  ZINC000508782983    0.1000
     36 H36        -8.0395    1.5812   56.4502 H       1  ZINC000508782983    0.0900
     37 H37        -6.0386    4.7160   57.6223 H       1  ZINC000508782983    0.1800
     38 H38        -6.6484    6.6820   55.9930 H       1  ZINC000508782983    0.1700
     39 H39        -9.9753    2.6685   55.4560 H       1  ZINC000508782983    0.0900
     40 H40        -9.9421    3.7851   54.0703 H       1  ZINC000508782983    0.1100
     41 H41        -8.1365    1.4432   54.3598 H       1  ZINC000508782983    0.4200
     42 H42        -6.4174    3.3092   50.2006 H       1  ZINC000508782983    0.0800
     43 H43        -6.8516    3.3969   51.9281 H       1  ZINC000508782983    0.1400
     44 H44        -4.3797    3.6997   51.4989 H       1  ZINC000508782983    0.0900
     45 H45        -4.7507    2.3194   52.5605 H       1  ZINC000508782983    0.0400
     46 H46        -2.4039    2.7837   51.2162 H       1  ZINC000508782983    0.0900
     47 H47        -2.4511    1.0361   51.5505 H       1  ZINC000508782983    0.0700
     48 H48        -1.3371    2.0149   46.4348 H       1  ZINC000508782983    0.1700
     49 H49         0.0565    0.0690   47.5131 H       1  ZINC000508782983    0.1800
     50 H50        -0.7212   -0.0276   49.9812 H       1  ZINC000508782983    0.4200
     51 H51        -4.1479   -0.2105   50.0283 H       1  ZINC000508782983    0.1100
     52 H52        -4.6182    0.0845   51.7200 H       1  ZINC000508782983    0.0400
     53 H53        -6.6144   -0.5246   50.4596 H       1  ZINC000508782983    0.1000
     54 H54        -6.2637    0.7218   49.2332 H       1  ZINC000508782983    0.0800
@<TRIPOS>BOND
     1     1     2    1
     2     1    28    1
     3     1    29    1
     4     1    30    1
     5     2     3    1
     6     2     4    1
     7     2    31    1
     8     3    32    1
     9     3    33    1
    10     3    34    1
    11     4     5    1
    12     4    35    1
    13     4    36    1
    14     5     9    1
    15     5     6    1
    16     6     7    2
    17     6    37    1
    18     7     8    1
    19     7    38    1
    20     8     9    2
    21     9    10    1
    22    10    11    1
    23    10    39    1
    24    10    40    1
    25    11    12   am
    26    11    41    1
    27    12    13    2
    28    12    14    1
    29    14    15    2
    30    14    16   am
    31    16    27    1
    32    16    17    1
    33    17    18    1
    34    17    42    1
    35    17    43    1
    36    18    19    1
    37    18    44    1
    38    18    45    1
    39    19    20    1
    40    19    26    1
    41    20    21    1
    42    20    46    1
    43    20    47    1
    44    21    25    1
    45    21    22    2
    46    22    23    1
    47    23    24    2
    48    23    48    1
    49    24    25    1
    50    24    49    1
    51    25    50    1
    52    26    27    1
    53    26    51    1
    54    26    52    1
    55    27    53    1
    56    27    54    1
@<TRIPOS>SUBSTRUCTURE
     1 ZINC000508782983        1 TEMP              0 ****  ****    0 ROOT


##########                                Name:    ZINC001083519372
##########                DOCK_Rotatable_Bonds:                   7
##########                         Heavy_Atoms:                  27
##########                    Molecular_Weight:             370.411
##########                DOCK_Rotatable_Bonds:                   7
##########                       Formal_Charge:           0.0399996
##########                     HBond_Acceptors:                   9
##########                        HBond_Donors:                   2
##########                         Heavy_Atoms:                  27
##########                          Grid_Score:          -33.809406
##########                     Grid_vdw_energy:          -31.318012
##########                      Grid_es_energy:           -2.491393
##########           Internal_energy_repulsive:           10.480762

@<TRIPOS>MOLECULE
ZINC001083519372
 49 52 1 0 0
SMALL
USER_CHARGES


@<TRIPOS>ATOM
      1 C1        -10.4387    4.2784   50.3981 C.3     1  ZINC001083519372   -0.1500
      2 C2        -10.7809    3.9848   51.8601 C.3     1  ZINC001083519372   -0.0100
      3 C3        -12.1780    4.5234   52.1748 C.3     1  ZINC001083519372   -0.1500
      4 C4        -10.7521    2.4962   52.0937 C.2     1  ZINC001083519372   -0.0100
      5 C5         -9.6900    1.7693   52.4782 C.2     1  ZINC001083519372   -0.0100
      6 C6         -8.3055    2.2957   52.7557 C.3     1  ZINC001083519372    0.1300
      7 N7         -7.4738    2.1433   51.5544 N.3     1  ZINC001083519372   -0.5000
      8 C8         -6.1429    2.7747   51.7448 C.3     1  ZINC001083519372    0.0300
      9 C9         -5.2668    2.0865   50.6682 C.3     1  ZINC001083519372    0.1500
     10 H10        -5.4217    2.5471   49.6925 H       1  ZINC001083519372    0.1200
     11 N11        -3.8515    2.1345   51.0433 N.am    1  ZINC001083519372   -0.6900
     12 C12        -2.9005    1.9029   50.1168 C.2     1  ZINC001083519372    0.5600
     13 O13        -3.2172    1.6556   48.9691 O.2     1  ZINC001083519372   -0.5100
     14 C14        -1.4755    1.9495   50.4947 C.2     1  ZINC001083519372    0.1400
     15 C15        -1.0868    2.5126   51.6803 C.2     1  ZINC001083519372   -0.1500
     16 C16         0.2746    2.5417   52.0109 C.2     1  ZINC001083519372    0.1800
     17 N17         1.1680    2.0357   51.1950 N.2     1  ZINC001083519372   -0.4400
     18 C18         0.8085    1.4813   50.0326 C.2     1  ZINC001083519372    0.2500
     19 C19         1.5381    0.8870   49.0087 C.2     1  ZINC001083519372   -0.2500
     20 C20         0.6415    0.4831   48.0334 C.2     1  ZINC001083519372    0.1000
     21 N21        -0.5771    0.8001   48.4131 N.2     1  ZINC001083519372   -0.3100
     22 N22        -0.5127    1.4226   49.6644 N.pl3   1  ZINC001083519372   -0.3100
     23 C23        -5.7896    0.6315   50.6753 C.3     1  ZINC001083519372    0.0900
     24 H24        -5.8300    0.2391   49.6592 H       1  ZINC001083519372    0.0800
     25 O25        -4.9538   -0.1918   51.4912 O.3     1  ZINC001083519372   -0.5600
     26 C26        -7.2065    0.7162   51.2724 C.3     1  ZINC001083519372    0.0100
     27 N27       -10.0850    0.4872   52.5711 N.2     1  ZINC001083519372   -0.4800
     28 C28       -11.3469    0.4150   52.2564 C.2     1  ZINC001083519372    0.1700
     29 O29       -11.7884    1.6451   51.9616 O.3     1  ZINC001083519372   -0.2000
     30 H30        -9.4435    3.8945   50.1738 H       1  ZINC001083519372    0.0600
     31 H31       -11.1692    3.7945   49.7497 H       1  ZINC001083519372    0.0600
     32 H32       -10.4595    5.3549   50.2291 H       1  ZINC001083519372    0.0700
     33 H33       -10.0505    4.4684   52.5085 H       1  ZINC001083519372    0.1000
     34 H34       -12.9085    4.0397   51.5265 H       1  ZINC001083519372    0.0600
     35 H35       -12.4219    4.3143   53.2165 H       1  ZINC001083519372    0.0600
     36 H36       -12.1989    5.6001   52.0059 H       1  ZINC001083519372    0.0700
     37 H37        -8.3649    3.3502   53.0252 H       1  ZINC001083519372    0.0900
     38 H38        -7.8618    1.7349   53.5784 H       1  ZINC001083519372    0.0600
     39 H39        -6.1978    3.8488   51.5673 H       1  ZINC001083519372    0.1000
     40 H40        -5.7584    2.5680   52.7435 H       1  ZINC001083519372    0.0600
     41 H41        -3.5987    2.3329   51.9586 H       1  ZINC001083519372    0.4300
     42 H42        -1.8211    2.9302   52.3531 H       1  ZINC001083519372    0.1800
     43 H43         0.5905    2.9844   52.9441 H       1  ZINC001083519372    0.1900
     44 H44         2.6106    0.7630   48.9792 H       1  ZINC001083519372    0.1700
     45 H45         0.9013   -0.0124   47.1096 H       1  ZINC001083519372    0.2000
     46 H46        -4.8587    0.1233   52.4005 H       1  ZINC001083519372    0.3900
     47 H47        -7.2553    0.1397   52.1962 H       1  ZINC001083519372    0.0700
     48 H48        -7.9347    0.3366   50.5557 H       1  ZINC001083519372    0.0900
     49 H49       -11.9404   -0.4871   52.2398 H       1  ZINC001083519372    0.2500
@<TRIPOS>BOND
     1     1     2    1
     2     1    30    1
     3     1    31    1
     4     1    32    1
     5     2     3    1
     6     2     4    1
     7     2    33    1
     8     3    34    1
     9     3    35    1
    10     3    36    1
    11     4    29    1
    12     4     5    2
    13     5     6    1
    14     5    27    1
    15     6     7    1
    16     6    37    1
    17     6    38    1
    18     7    26    1
    19     7     8    1
    20     8     9    1
    21     8    39    1
    22     8    40    1
    23     9    10    1
    24     9    11    1
    25     9    23    1
    26    11    12   am
    27    11    41    1
    28    12    13    2
    29    12    14    1
    30    14    22    1
    31    14    15    2
    32    15    16    1
    33    15    42    1
    34    16    17    2
    35    16    43    1
    36    17    18    1
    37    18    22    1
    38    18    19    2
    39    19    20    1
    40    19    44    1
    41    20    21    2
    42    20    45    1
    43    21    22    1
    44    23    24    1
    45    23    25    1
    46    23    26    1
    47    25    46    1
    48    26    47    1
    49    26    48    1
    50    27    28    2
    51    28    29    1
    52    28    49    1
@<TRIPOS>SUBSTRUCTURE
     1 ZINC001083519372        1 TEMP              0 ****  ****    0 ROOT


##########                                Name:    ZINC000668548901
##########                DOCK_Rotatable_Bonds:                   9
##########                         Heavy_Atoms:                  26
##########                    Molecular_Weight:             374.464
##########                DOCK_Rotatable_Bonds:                   9
##########                       Formal_Charge:         3.53903e-07
##########                     HBond_Acceptors:                   8
##########                        HBond_Donors:                   3
##########                         Heavy_Atoms:                  26
##########                          Grid_Score:          -33.793812
##########                     Grid_vdw_energy:          -32.020775
##########                      Grid_es_energy:           -1.773036
##########           Internal_energy_repulsive:           12.883017

@<TRIPOS>MOLECULE
ZINC000668548901
 48 50 1 0 0
SMALL
USER_CHARGES


@<TRIPOS>ATOM
      1 O1         -3.3083    0.7850   50.7444 O.2     1  ZINC000668548901   -0.5700
      2 C2         -3.4255    1.9951   50.7416 C.2     1  ZINC000668548901    0.7100
      3 N3         -2.3776    2.7728   50.4041 N.am    1  ZINC000668548901   -0.6800
      4 C4         -1.1566    2.1891   50.0633 C.ar    1  ZINC000668548901    0.2200
      5 C5         -0.0797    2.2136   50.9510 C.ar    1  ZINC000668548901   -0.1700
      6 C6          1.1117    1.6273   50.5809 C.ar    1  ZINC000668548901    0.1200
      7 N7          1.2449    1.0466   49.4029 N.ar    1  ZINC000668548901   -0.4300
      8 C8          0.2481    1.0008   48.5301 C.ar    1  ZINC000668548901    0.1100
      9 S9          0.4874    0.2106   46.9736 S.3     1  ZINC000668548901    0.0900
     10 C10         0.4176    1.5520   45.8331 C.ar    1  ZINC000668548901    0.0900
     11 C11         0.8843    1.3775   44.5343 C.ar    1  ZINC000668548901   -0.1500
     12 C12         0.8231    2.4389   43.6492 C.ar    1  ZINC000668548901   -0.0700
     13 C13         0.2952    3.6436   44.0946 C.ar    1  ZINC000668548901   -0.1700
     14 C14        -0.1498    3.7466   45.3978 C.ar    1  ZINC000668548901    0.1000
     15 N15        -0.0838    2.7159   46.2186 N.ar    1  ZINC000668548901   -0.4200
     16 C16        -0.9845    1.5638   48.8328 C.ar    1  ZINC000668548901   -0.1800
     17 N17        -4.6046    2.5587   51.0707 N.am    1  ZINC000668548901   -0.7200
     18 C18        -5.7435    1.7134   51.4375 C.3     1  ZINC000668548901    0.1700
     19 H19        -5.4148    0.9443   52.1365 H       1  ZINC000668548901    0.1000
     20 C20        -6.3127    1.0513   50.1811 C.3     1  ZINC000668548901    0.0600
     21 O21        -6.9055   -0.2014   50.5297 O.3     1  ZINC000668548901   -0.5700
     22 C22        -6.8250    2.5725   52.0959 C.3     1  ZINC000668548901   -0.1300
     23 H23        -7.0530    3.4247   51.4558 H       1  ZINC000668548901    0.1000
     24 C24        -6.3251    3.0720   53.4548 C.3     1  ZINC000668548901   -0.1200
     25 C25        -7.4435    3.8650   54.1379 C.3     1  ZINC000668548901   -0.1600
     26 C26        -8.6836    2.9763   54.2659 C.3     1  ZINC000668548901    0.0600
     27 O27        -9.0775    2.5210   52.9699 O.3     1  ZINC000668548901   -0.3800
     28 C28        -8.0894    1.7341   52.3013 C.3     1  ZINC000668548901    0.0700
     29 H29        -2.4723    3.7381   50.3980 H       1  ZINC000668548901    0.4100
     30 H30        -0.1787    2.6869   51.9168 H       1  ZINC000668548901    0.1500
     31 H31         1.9479    1.6435   51.2642 H       1  ZINC000668548901    0.1600
     32 H32         1.2891    0.4265   44.2212 H       1  ZINC000668548901    0.1400
     33 H33         1.1782    2.3332   42.6348 H       1  ZINC000668548901    0.1400
     34 H34         0.2338    4.4916   43.4286 H       1  ZINC000668548901    0.1400
     35 H35        -0.5607    4.6818   45.7484 H       1  ZINC000668548901    0.1600
     36 H36        -1.7948    1.5249   48.1199 H       1  ZINC000668548901    0.1400
     37 H37        -4.6992    3.5241   51.0647 H       1  ZINC000668548901    0.4000
     38 H38        -7.0686    1.7004   49.7390 H       1  ZINC000668548901    0.0500
     39 H39        -5.5102    0.8860   49.4622 H       1  ZINC000668548901    0.0600
     40 H40        -7.2599   -0.6922   49.7757 H       1  ZINC000668548901    0.3800
     41 H41        -6.0490    2.2208   54.0773 H       1  ZINC000668548901    0.0700
     42 H42        -5.4576    3.7160   53.3100 H       1  ZINC000668548901    0.0700
     43 H43        -7.1155    4.1774   55.1293 H       1  ZINC000668548901    0.0800
     44 H44        -7.6851    4.7434   53.5396 H       1  ZINC000668548901    0.0700
     45 H45        -8.4527    2.1188   54.8979 H       1  ZINC000668548901    0.0500
     46 H46        -9.4965    3.5489   54.7126 H       1  ZINC000668548901    0.1000
     47 H47        -8.4750    1.4120   51.3340 H       1  ZINC000668548901    0.1000
     48 H48        -7.8500    0.8601   52.9069 H       1  ZINC000668548901    0.0500
@<TRIPOS>BOND
     1     1     2    2
     2     2     3   am
     3     2    17   am
     4     3     4    1
     5     3    29    1
     6     4    16   ar
     7     4     5   ar
     8     5     6   ar
     9     5    30    1
    10     6     7   ar
    11     6    31    1
    12     7     8   ar
    13     8     9    1
    14     8    16   ar
    15     9    10    1
    16    10    15   ar
    17    10    11   ar
    18    11    12   ar
    19    11    32    1
    20    12    13   ar
    21    12    33    1
    22    13    14   ar
    23    13    34    1
    24    14    15   ar
    25    14    35    1
    26    16    36    1
    27    17    18    1
    28    17    37    1
    29    18    19    1
    30    18    20    1
    31    18    22    1
    32    20    21    1
    33    20    38    1
    34    20    39    1
    35    21    40    1
    36    22    23    1
    37    22    28    1
    38    22    24    1
    39    24    25    1
    40    24    41    1
    41    24    42    1
    42    25    26    1
    43    25    43    1
    44    25    44    1
    45    26    27    1
    46    26    45    1
    47    26    46    1
    48    27    28    1
    49    28    47    1
    50    28    48    1
@<TRIPOS>SUBSTRUCTURE
     1 ZINC000668548901        1 TEMP              0 ****  ****    0 ROOT


##########                                Name:    ZINC000484900616
##########                DOCK_Rotatable_Bonds:                  10
##########                         Heavy_Atoms:                  29
##########                    Molecular_Weight:             415.556
##########                DOCK_Rotatable_Bonds:                  10
##########                       Formal_Charge:        -1.49012e-08
##########                     HBond_Acceptors:                   7
##########                        HBond_Donors:                   1
##########                         Heavy_Atoms:                  29
##########                          Grid_Score:          -33.776096
##########                     Grid_vdw_energy:          -33.050209
##########                      Grid_es_energy:           -0.725889
##########           Internal_energy_repulsive:            9.923926

@<TRIPOS>MOLECULE
ZINC000484900616
 58 60 1 0 0
SMALL
USER_CHARGES


@<TRIPOS>ATOM
      1 C1        -13.8616   -0.3606   47.6941 C.3     1  ZINC000484900616   -0.1500
      2 C2        -14.2390    0.9062   46.9235 C.3     1  ZINC000484900616    0.0600
      3 O3        -13.3339    1.9817   47.2872 O.3     1  ZINC000484900616   -0.3400
      4 C4        -13.5330    2.5710   48.4831 C.2     1  ZINC000484900616    0.5500
      5 O5        -14.6286    2.5261   49.0078 O.2     1  ZINC000484900616   -0.5000
      6 C6        -12.4245    3.2685   49.1532 C.2     1  ZINC000484900616    0.0200
      7 C7        -12.2046    3.1987   50.4862 C.2     1  ZINC000484900616   -0.2400
      8 S8        -10.8298    4.1402   50.8683 S.3     1  ZINC000484900616    0.2900
      9 C9        -10.6280    4.5723   49.2285 C.2     1  ZINC000484900616    0.0300
     10 C10        -9.5329    5.4656   48.7051 C.3     1  ZINC000484900616    0.1500
     11 H11        -9.2969    5.2101   47.6721 H       1  ZINC000484900616    0.0900
     12 C12        -9.9537    6.9527   48.8102 C.3     1  ZINC000484900616   -0.1200
     13 C13        -8.5765    7.6659   48.8508 C.3     1  ZINC000484900616   -0.1400
     14 C14        -7.7000    6.6838   49.6562 C.3     1  ZINC000484900616    0.0500
     15 N15        -8.3265    5.3513   49.5520 N.3     1  ZINC000484900616   -0.5100
     16 C16        -7.3838    4.3679   49.0024 C.3     1  ZINC000484900616    0.0300
     17 C17        -6.5878    3.7532   50.1248 C.2     1  ZINC000484900616    0.5200
     18 O18        -6.3684    4.3911   51.1327 O.2     1  ZINC000484900616   -0.5100
     19 N19        -6.1199    2.4947   50.0085 N.am    1  ZINC000484900616   -0.7300
     20 C20        -5.3475    1.8966   51.1004 C.3     1  ZINC000484900616    0.1900
     21 H21        -5.6256    2.3680   52.0429 H       1  ZINC000484900616    0.1000
     22 C22        -5.6442    0.3973   51.1730 C.3     1  ZINC000484900616   -0.1600
     23 C23        -3.8766    2.1059   50.8486 C.ar    1  ZINC000484900616   -0.1000
     24 C24        -3.3206    1.7239   49.6420 C.ar    1  ZINC000484900616   -0.1100
     25 C25        -1.9712    1.9159   49.4111 C.ar    1  ZINC000484900616   -0.1100
     26 C26        -1.1780    2.4903   50.3866 C.ar    1  ZINC000484900616   -0.0800
     27 C27         0.2932    2.6993   50.1350 C.3     1  ZINC000484900616   -0.0900
     28 C28         1.0692    1.4620   50.5909 C.3     1  ZINC000484900616   -0.1500
     29 C29        -1.7342    2.8736   51.5927 C.ar    1  ZINC000484900616   -0.1100
     30 C30        -3.0843    2.6851   51.8221 C.ar    1  ZINC000484900616   -0.1000
     31 N31       -11.5373    4.0254   48.5016 N.2     1  ZINC000484900616   -0.4300
     32 H32       -12.8394   -0.6462   47.4455 H       1  ZINC000484900616    0.0700
     33 H33       -13.9354   -0.1701   48.7648 H       1  ZINC000484900616    0.0700
     34 H34       -14.5411   -1.1680   47.4210 H       1  ZINC000484900616    0.0800
     35 H35       -14.1652    0.7156   45.8529 H       1  ZINC000484900616    0.0700
     36 H36       -15.2612    1.1917   47.1721 H       1  ZINC000484900616    0.0700
     37 H37       -12.7999    2.6399   51.1932 H       1  ZINC000484900616    0.1900
     38 H38       -10.5264    7.2593   47.9348 H       1  ZINC000484900616    0.0900
     39 H39       -10.5154    7.1358   49.7261 H       1  ZINC000484900616    0.0800
     40 H40        -8.1812    7.7983   47.8437 H       1  ZINC000484900616    0.0700
     41 H41        -8.6537    8.6240   49.3648 H       1  ZINC000484900616    0.0800
     42 H42        -6.6949    6.6531   49.2357 H       1  ZINC000484900616    0.0600
     43 H43        -7.6582    6.9946   50.7001 H       1  ZINC000484900616    0.0900
     44 H44        -7.9365    3.5876   48.4792 H       1  ZINC000484900616    0.1100
     45 H45        -6.7071    4.8631   48.3060 H       1  ZINC000484900616    0.0700
     46 H46        -6.2942    1.9850   49.2019 H       1  ZINC000484900616    0.4000
     47 H47        -5.0696   -0.0478   51.9853 H       1  ZINC000484900616    0.0700
     48 H48        -6.7082    0.2459   51.3552 H       1  ZINC000484900616    0.0700
     49 H49        -5.3662   -0.0742   50.2305 H       1  ZINC000484900616    0.0600
     50 H50        -3.9404    1.2751   48.8799 H       1  ZINC000484900616    0.1200
     51 H51        -1.5367    1.6167   48.4687 H       1  ZINC000484900616    0.1200
     52 H52         0.4602    2.8611   49.0702 H       1  ZINC000484900616    0.0700
     53 H53         0.6371    3.5700   50.6933 H       1  ZINC000484900616    0.0700
     54 H54         0.9021    1.3002   51.6558 H       1  ZINC000484900616    0.0600
     55 H55         0.7254    0.5913   50.0326 H       1  ZINC000484900616    0.0600
     56 H56         2.1333    1.6133   50.4090 H       1  ZINC000484900616    0.0600
     57 H57        -1.1145    3.3228   52.3547 H       1  ZINC000484900616    0.1200
     58 H58        -3.5189    2.9846   52.7644 H       1  ZINC000484900616    0.1200
@<TRIPOS>BOND
     1     1     2    1
     2     1    32    1
     3     1    33    1
     4     1    34    1
     5     2     3    1
     6     2    35    1
     7     2    36    1
     8     3     4    1
     9     4     5    2
    10     4     6    1
    11     6    31    1
    12     6     7    2
    13     7     8    1
    14     7    37    1
    15     8     9    1
    16     9    10    1
    17     9    31    2
    18    10    11    1
    19    10    15    1
    20    10    12    1
    21    12    13    1
    22    12    38    1
    23    12    39    1
    24    13    14    1
    25    13    40    1
    26    13    41    1
    27    14    15    1
    28    14    42    1
    29    14    43    1
    30    15    16    1
    31    16    17    1
    32    16    44    1
    33    16    45    1
    34    17    18    2
    35    17    19   am
    36    19    20    1
    37    19    46    1
    38    20    21    1
    39    20    22    1
    40    20    23    1
    41    22    47    1
    42    22    48    1
    43    22    49    1
    44    23    30   ar
    45    23    24   ar
    46    24    25   ar
    47    24    50    1
    48    25    26   ar
    49    25    51    1
    50    26    27    1
    51    26    29   ar
    52    27    28    1
    53    27    52    1
    54    27    53    1
    55    28    54    1
    56    28    55    1
    57    28    56    1
    58    29    30   ar
    59    29    57    1
    60    30    58    1
@<TRIPOS>SUBSTRUCTURE
     1 ZINC000484900616        1 TEMP              0 ****  ****    0 ROOT


##########                                Name:    ZINC001284642199
##########                DOCK_Rotatable_Bonds:                   8
##########                         Heavy_Atoms:                  25
##########                    Molecular_Weight:             346.516
##########                DOCK_Rotatable_Bonds:                   8
##########                       Formal_Charge:         -3.8743e-07
##########                     HBond_Acceptors:                   5
##########                        HBond_Donors:                   2
##########                         Heavy_Atoms:                  25
##########                          Grid_Score:          -33.758373
##########                     Grid_vdw_energy:          -32.741196
##########                      Grid_es_energy:           -1.017177
##########           Internal_energy_repulsive:           21.014420

@<TRIPOS>MOLECULE
ZINC001284642199
 59 60 1 0 0
SMALL
USER_CHARGES


@<TRIPOS>ATOM
      1 C1         -8.8310    4.3516   50.3541 C.3     1  ZINC001284642199   -0.1100
      2 C2         -7.7755    3.2786   50.4290 C.ar    1  ZINC001284642199   -0.1900
      3 C3         -7.6636    2.4700   51.5491 C.ar    1  ZINC001284642199    0.1500
      4 N4         -6.7248    1.5378   51.5791 N.ar    1  ZINC001284642199   -0.4900
      5 C5         -5.9033    1.3741   50.5615 C.ar    1  ZINC001284642199    0.3100
      6 C6         -4.8478    0.3010   50.6364 C.3     1  ZINC001284642199    0.1300
      7 N7         -3.6022    0.7967   50.0359 N.3     1  ZINC001284642199   -0.6800
      8 C8         -2.9802    1.8218   50.8845 C.3     1  ZINC001284642199    0.0500
      9 C9         -1.4871    1.9130   50.5630 C.3     1  ZINC001284642199    0.1600
     10 H10        -0.9731    1.0447   50.9752 H       1  ZINC001284642199    0.1000
     11 N11        -1.3016    1.9462   49.1102 N.am    1  ZINC001284642199   -0.7200
     12 C12        -0.2465    1.3212   48.5511 C.2     1  ZINC001284642199    0.5200
     13 O13         0.5486    0.7300   49.2506 O.2     1  ZINC001284642199   -0.5300
     14 C14        -0.0546    1.3570   47.0568 C.3     1  ZINC001284642199   -0.1100
     15 H15        -0.5068    0.4709   46.6112 H       1  ZINC001284642199    0.0900
     16 C16        -0.7210    2.6108   46.4869 C.3     1  ZINC001284642199   -0.1000
     17 C17        -0.5262    2.6471   44.9699 C.3     1  ZINC001284642199   -0.1100
     18 C18         0.9694    2.6733   44.6481 C.3     1  ZINC001284642199   -0.0900
     19 H19         1.4214    3.5594   45.0937 H       1  ZINC001284642199    0.0700
     20 C20         1.1641    2.7095   43.1309 C.3     1  ZINC001284642199   -0.1500
     21 C21         1.6356    1.4195   45.2180 C.3     1  ZINC001284642199   -0.1100
     22 C22         1.4409    1.3832   46.7350 C.3     1  ZINC001284642199   -0.1100
     23 C23        -0.9094    3.1882   51.1802 C.3     1  ZINC001284642199   -0.0800
     24 C24         0.6151    3.0773   51.2468 C.3     1  ZINC001284642199   -0.1400
     25 C25        -1.2961    4.3922   50.3189 C.3     1  ZINC001284642199   -0.1400
     26 C26        -1.4697    3.3703   52.5923 C.3     1  ZINC001284642199   -0.1300
     27 N27        -5.9768    2.1273   49.4825 N.ar    1  ZINC001284642199   -0.5100
     28 C28        -6.8935    3.0762   49.3792 C.ar    1  ZINC001284642199    0.1500
     29 H29        -8.4316    5.2827   50.7562 H       1  ZINC001284642199    0.0800
     30 H30        -9.1244    4.5008   49.3151 H       1  ZINC001284642199    0.0700
     31 H31        -9.7003    4.0475   50.9370 H       1  ZINC001284642199    0.0700
     32 H32        -8.3334    2.5992   52.3864 H       1  ZINC001284642199    0.1700
     33 H33        -5.1872   -0.5809   50.0933 H       1  ZINC001284642199    0.1000
     34 H34        -4.6694    0.0393   51.6794 H       1  ZINC001284642199    0.0600
     35 H35        -3.7648    1.1485   49.1043 H       1  ZINC001284642199    0.3400
     36 H36        -3.1104    1.5536   51.9330 H       1  ZINC001284642199    0.0900
     37 H37        -3.4521    2.7859   50.6949 H       1  ZINC001284642199    0.0400
     38 H38        -1.9381    2.4181   48.5506 H       1  ZINC001284642199    0.3900
     39 H39        -0.2689    3.4969   46.9326 H       1  ZINC001284642199    0.0700
     40 H40        -1.7864    2.5923   46.7161 H       1  ZINC001284642199    0.0700
     41 H41        -1.0009    3.5404   44.5639 H       1  ZINC001284642199    0.0700
     42 H42        -0.9783    1.7610   44.5241 H       1  ZINC001284642199    0.0600
     43 H43         0.6894    3.6029   42.7250 H       1  ZINC001284642199    0.0500
     44 H44         2.2295    2.7282   42.9017 H       1  ZINC001284642199    0.0500
     45 H45         0.7121    1.8235   42.6854 H       1  ZINC001284642199    0.0500
     46 H46         1.1836    0.5334   44.7723 H       1  ZINC001284642199    0.0600
     47 H47         2.7011    1.4380   44.9888 H       1  ZINC001284642199    0.0700
     48 H48         1.8930    2.2693   47.1807 H       1  ZINC001284642199    0.0700
     49 H49         1.9155    0.4899   47.1411 H       1  ZINC001284642199    0.0600
     50 H50         1.0142    2.9475   50.2408 H       1  ZINC001284642199    0.0600
     51 H51         1.0266    3.9857   51.6866 H       1  ZINC001284642199    0.0600
     52 H52         0.8905    2.2196   51.8605 H       1  ZINC001284642199    0.0500
     53 H53        -2.3822    4.4713   50.2715 H       1  ZINC001284642199    0.0600
     54 H54        -0.8845    5.3007   50.7587 H       1  ZINC001284642199    0.0600
     55 H55        -0.8970    4.2624   49.3130 H       1  ZINC001284642199    0.0600
     56 H56        -1.1942    2.5127   53.2059 H       1  ZINC001284642199    0.0500
     57 H57        -1.0581    4.2789   53.0321 H       1  ZINC001284642199    0.0500
     58 H58        -2.5557    3.4494   52.5449 H       1  ZINC001284642199    0.0600
     59 H59        -6.9508    3.6874   48.4907 H       1  ZINC001284642199    0.1700
@<TRIPOS>BOND
     1     1     2    1
     2     1    29    1
     3     1    30    1
     4     1    31    1
     5     2    28   ar
     6     2     3   ar
     7     3     4   ar
     8     3    32    1
     9     4     5   ar
    10     5     6    1
    11     5    27   ar
    12     6     7    1
    13     6    33    1
    14     6    34    1
    15     7     8    1
    16     7    35    1
    17     8     9    1
    18     8    36    1
    19     8    37    1
    20     9    10    1
    21     9    11    1
    22     9    23    1
    23    11    12   am
    24    11    38    1
    25    12    13    2
    26    12    14    1
    27    14    15    1
    28    14    22    1
    29    14    16    1
    30    16    17    1
    31    16    39    1
    32    16    40    1
    33    17    18    1
    34    17    41    1
    35    17    42    1
    36    18    19    1
    37    18    20    1
    38    18    21    1
    39    20    43    1
    40    20    44    1
    41    20    45    1
    42    21    22    1
    43    21    46    1
    44    21    47    1
    45    22    48    1
    46    22    49    1
    47    23    24    1
    48    23    25    1
    49    23    26    1
    50    24    50    1
    51    24    51    1
    52    24    52    1
    53    25    53    1
    54    25    54    1
    55    25    55    1
    56    26    56    1
    57    26    57    1
    58    26    58    1
    59    27    28   ar
    60    28    59    1
@<TRIPOS>SUBSTRUCTURE
     1 ZINC001284642199        1 TEMP              0 ****  ****    0 ROOT


##########                                Name:    ZINC000050607728
##########                DOCK_Rotatable_Bonds:                  10
##########                         Heavy_Atoms:                  31
##########                    Molecular_Weight:             416.476
##########                DOCK_Rotatable_Bonds:                  10
##########                       Formal_Charge:          -0.0199995
##########                     HBond_Acceptors:                   6
##########                        HBond_Donors:                   1
##########                         Heavy_Atoms:                  31
##########                          Grid_Score:          -33.755924
##########                     Grid_vdw_energy:          -32.673447
##########                      Grid_es_energy:           -1.082476
##########           Internal_energy_repulsive:           14.364135

@<TRIPOS>MOLECULE
ZINC000050607728
 55 57 1 0 0
SMALL
USER_CHARGES


@<TRIPOS>ATOM
      1 C1          1.4032    0.6536   45.8921 C.3     1  ZINC000050607728    0.0800
      2 N2          0.4406    1.3161   46.7756 N.am    1  ZINC000050607728   -0.6200
      3 C3         -0.7551    1.9486   46.2131 C.3     1  ZINC000050607728    0.0700
      4 C4          0.6549    1.3437   48.1059 C.2     1  ZINC000050607728    0.5600
      5 O5          1.6470    0.8189   48.5727 O.2     1  ZINC000050607728   -0.5300
      6 C6         -0.3165    2.0123   48.9975 C.ar    1  ZINC000050607728   -0.1400
      7 C7         -0.1112    3.3353   49.3914 C.ar    1  ZINC000050607728   -0.0800
      8 C8         -1.0219    3.9536   50.2232 C.ar    1  ZINC000050607728   -0.1300
      9 C9         -2.1364    3.2648   50.6673 C.ar    1  ZINC000050607728   -0.0700
     10 C10        -2.3457    1.9526   50.2810 C.ar    1  ZINC000050607728   -0.1100
     11 C11        -3.5623    1.2097   50.7700 C.3     1  ZINC000050607728    0.1100
     12 O12        -4.6977    2.1139   50.8102 O.3     1  ZINC000050607728   -0.3400
     13 C13        -5.9197    1.5585   50.7976 C.2     1  ZINC000050607728    0.4700
     14 O14        -6.0582    0.4111   50.4454 O.2     1  ZINC000050607728   -0.5000
     15 C15        -7.1189    2.3663   51.2225 C.3     1  ZINC000050607728    0.2000
     16 H16        -8.0240    1.9137   50.8175 H       1  ZINC000050607728    0.1400
     17 N17        -7.1976    2.3909   52.6852 N.am    1  ZINC000050607728   -0.7100
     18 C18        -8.2727    1.8722   53.3110 C.2     1  ZINC000050607728    0.5700
     19 O19        -9.1763    1.3826   52.6619 O.2     1  ZINC000050607728   -0.5200
     20 C20        -8.3530    1.8986   54.7870 C.ar    1  ZINC000050607728   -0.1400
     21 C21        -7.3801    2.5692   55.5300 C.ar    1  ZINC000050607728   -0.0800
     22 C22        -7.4611    2.5904   56.9071 C.ar    1  ZINC000050607728   -0.1300
     23 C23        -8.5036    1.9487   57.5517 C.ar    1  ZINC000050607728   -0.0900
     24 C24        -9.4711    1.2818   56.8211 C.ar    1  ZINC000050607728   -0.1300
     25 C25        -9.4052    1.2581   55.4434 C.ar    1  ZINC000050607728   -0.0600
     26 C26        -6.9856    3.7746   50.7029 C.ar    1  ZINC000050607728   -0.1000
     27 C27        -6.3317    4.7307   51.4572 C.ar    1  ZINC000050607728   -0.1000
     28 C28        -6.2095    6.0225   50.9805 C.ar    1  ZINC000050607728   -0.1200
     29 C29        -6.7410    6.3581   49.7494 C.ar    1  ZINC000050607728   -0.1100
     30 C30        -7.3943    5.4017   48.9947 C.ar    1  ZINC000050607728   -0.1200
     31 C31        -7.5127    4.1089   49.4694 C.ar    1  ZINC000050607728   -0.0800
     32 C32        -1.4462    1.3249   49.4447 C.ar    1  ZINC000050607728   -0.0400
     33 H33         2.1571    1.3728   45.5717 H       1  ZINC000050607728    0.0600
     34 H34         1.8857   -0.1638   46.4281 H       1  ZINC000050607728    0.0800
     35 H35         0.8834    0.2589   45.0191 H       1  ZINC000050607728    0.0700
     36 H36        -1.5402    1.2016   46.0957 H       1  ZINC000050607728    0.0600
     37 H37        -1.0997    2.7356   46.8839 H       1  ZINC000050607728    0.0800
     38 H38        -0.5151    2.3793   45.2408 H       1  ZINC000050607728    0.0700
     39 H39         0.7589    3.8740   49.0458 H       1  ZINC000050607728    0.1400
     40 H40        -0.8642    4.9775   50.5287 H       1  ZINC000050607728    0.1400
     41 H41        -2.8460    3.7532   51.3186 H       1  ZINC000050607728    0.1300
     42 H42        -3.7797    0.3833   50.0935 H       1  ZINC000050607728    0.0900
     43 H43        -3.3725    0.8203   51.7702 H       1  ZINC000050607728    0.0900
     44 H44        -6.4761    2.7805   53.2033 H       1  ZINC000050607728    0.4100
     45 H45        -6.5654    3.0699   55.0281 H       1  ZINC000050607728    0.1300
     46 H46        -6.7090    3.1089   57.4831 H       1  ZINC000050607728    0.1300
     47 H47        -8.5623    1.9680   58.6299 H       1  ZINC000050607728    0.1300
     48 H48       -10.2821    0.7825   57.3304 H       1  ZINC000050607728    0.1300
     49 H49       -10.1612    0.7375   54.8743 H       1  ZINC000050607728    0.1400
     50 H50        -5.9164    4.4685   52.4190 H       1  ZINC000050607728    0.1200
     51 H51        -5.6991    6.7697   51.5702 H       1  ZINC000050607728    0.1200
     52 H52        -6.6462    7.3675   49.3773 H       1  ZINC000050607728    0.1200
     53 H53        -7.8098    5.6640   48.0329 H       1  ZINC000050607728    0.1300
     54 H54        -8.0231    3.3618   48.8798 H       1  ZINC000050607728    0.1300
     55 H55        -1.6109    0.3008   49.1436 H       1  ZINC000050607728    0.1300
@<TRIPOS>BOND
     1     1     2    1
     2     1    33    1
     3     1    34    1
     4     1    35    1
     5     2     3    1
     6     2     4   am
     7     3    36    1
     8     3    37    1
     9     3    38    1
    10     4     5    2
    11     4     6    1
    12     6    32   ar
    13     6     7   ar
    14     7     8   ar
    15     7    39    1
    16     8     9   ar
    17     8    40    1
    18     9    10   ar
    19     9    41    1
    20    10    11    1
    21    10    32   ar
    22    11    12    1
    23    11    42    1
    24    11    43    1
    25    12    13    1
    26    13    14    2
    27    13    15    1
    28    15    16    1
    29    15    17    1
    30    15    26    1
    31    17    18   am
    32    17    44    1
    33    18    19    2
    34    18    20    1
    35    20    25   ar
    36    20    21   ar
    37    21    22   ar
    38    21    45    1
    39    22    23   ar
    40    22    46    1
    41    23    24   ar
    42    23    47    1
    43    24    25   ar
    44    24    48    1
    45    25    49    1
    46    26    31   ar
    47    26    27   ar
    48    27    28   ar
    49    27    50    1
    50    28    29   ar
    51    28    51    1
    52    29    30   ar
    53    29    52    1
    54    30    31   ar
    55    30    53    1
    56    31    54    1
    57    32    55    1
@<TRIPOS>SUBSTRUCTURE
     1 ZINC000050607728        1 TEMP              0 ****  ****    0 ROOT


##########                                Name:    ZINC000767361237
##########                DOCK_Rotatable_Bonds:                  10
##########                         Heavy_Atoms:                  30
##########                    Molecular_Weight:             409.439
##########                DOCK_Rotatable_Bonds:                  10
##########                       Formal_Charge:          -0.0300005
##########                     HBond_Acceptors:                   7
##########                        HBond_Donors:                   1
##########                         Heavy_Atoms:                  30
##########                          Grid_Score:          -33.750137
##########                     Grid_vdw_energy:          -32.803684
##########                      Grid_es_energy:           -0.946453
##########           Internal_energy_repulsive:           17.783558

@<TRIPOS>MOLECULE
ZINC000767361237
 53 55 1 0 0
SMALL
USER_CHARGES


@<TRIPOS>ATOM
      1 C1          0.2009    7.0480   42.1910 C.3     1  ZINC000767361237   -0.1200
      2 C2          0.6117    5.7002   42.7257 C.ar    1  ZINC000767361237   -0.0900
      3 C3          1.0051    4.7017   41.8545 C.ar    1  ZINC000767361237   -0.1200
      4 C4          1.3819    3.4654   42.3449 C.ar    1  ZINC000767361237   -0.1100
      5 C5          1.3657    3.2278   43.7065 C.ar    1  ZINC000767361237   -0.0800
      6 C6          1.7760    1.8799   44.2411 C.3     1  ZINC000767361237   -0.0800
      7 H7          2.4980    2.0130   45.0467 H       1  ZINC000767361237    0.0900
      8 C8          2.4108    1.0576   43.1179 C.3     1  ZINC000767361237   -0.1500
      9 C9          0.5442    1.1470   44.7763 C.3     1  ZINC000767361237    0.1300
     10 H10         0.4680    0.1692   44.3004 H       1  ZINC000767361237    0.1400
     11 O11        -0.6280    1.9107   44.4860 O.3     1  ZINC000767361237   -0.5200
     12 C12         0.6728    0.9712   46.2675 C.2     1  ZINC000767361237    0.4300
     13 O13         0.9354   -0.1148   46.7274 O.2     1  ZINC000767361237   -0.5000
     14 O14         0.4955    2.0212   47.0848 O.3     1  ZINC000767361237   -0.3300
     15 C15         0.3866    1.7399   48.5051 C.3     1  ZINC000767361237    0.0100
     16 C16        -0.0224    2.9931   49.2355 C.2     1  ZINC000767361237    0.3700
     17 O17         0.7887    3.8637   49.4417 O.2     1  ZINC000767361237   -0.4200
     18 C18        -1.4435    3.1597   49.7085 C.3     1  ZINC000767361237   -0.1800
     19 C19        -1.6196    2.4520   51.0535 C.3     1  ZINC000767361237    0.1200
     20 N20        -3.0391    2.1618   51.2704 N.am    1  ZINC000767361237   -0.5800
     21 C21        -3.6984    1.1293   50.7146 C.2     1  ZINC000767361237    0.5700
     22 O22        -3.2187    0.3028   49.9652 O.2     1  ZINC000767361237   -0.4600
     23 C23        -5.1043    1.1685   51.1695 C.ar    1  ZINC000767361237   -0.1400
     24 C24        -6.2202    0.3828   50.9322 C.ar    1  ZINC000767361237   -0.0400
     25 C25        -7.4277    0.7045   51.5331 C.ar    1  ZINC000767361237   -0.0900
     26 C26        -7.5249    1.8027   52.3662 C.ar    1  ZINC000767361237   -0.0900
     27 C27        -6.4164    2.5982   52.6129 C.ar    1  ZINC000767361237   -0.0400
     28 C28        -5.2034    2.2890   52.0194 C.ar    1  ZINC000767361237   -0.1400
     29 C29        -3.8533    2.8894   52.0561 C.2     1  ZINC000767361237    0.5700
     30 O30        -3.5330    3.8757   52.6882 O.2     1  ZINC000767361237   -0.4600
     31 C31         0.9736    4.2267   44.5779 C.ar    1  ZINC000767361237   -0.1100
     32 C32         0.6005    5.4643   44.0877 C.ar    1  ZINC000767361237   -0.1200
     33 H33         1.0757    7.6951   42.1260 H       1  ZINC000767361237    0.0700
     34 H34        -0.2365    6.9279   41.1999 H       1  ZINC000767361237    0.0700
     35 H35        -0.5334    7.4960   42.8605 H       1  ZINC000767361237    0.0700
     36 H36         1.0178    4.8874   40.7906 H       1  ZINC000767361237    0.1200
     37 H37         1.6886    2.6851   41.6641 H       1  ZINC000767361237    0.1200
     38 H38         2.7076    0.0826   43.5046 H       1  ZINC000767361237    0.0800
     39 H39         1.6887    0.9244   42.3123 H       1  ZINC000767361237    0.0700
     40 H40         3.2884    1.5797   42.7366 H       1  ZINC000767361237    0.0600
     41 H41        -0.6886    2.7409   44.9782 H       1  ZINC000767361237    0.3900
     42 H42        -0.3628    0.9648   48.6656 H       1  ZINC000767361237    0.1100
     43 H43         1.3501    1.3975   48.8826 H       1  ZINC000767361237    0.1100
     44 H44        -1.6658    4.2204   49.8242 H       1  ZINC000767361237    0.1100
     45 H45        -2.1235    2.7236   48.9767 H       1  ZINC000767361237    0.1100
     46 H46        -1.0545    1.5200   51.0504 H       1  ZINC000767361237    0.1100
     47 H47        -1.2540    3.0959   51.8534 H       1  ZINC000767361237    0.1100
     48 H48        -6.1501   -0.4765   50.2817 H       1  ZINC000767361237    0.1400
     49 H49        -8.2983    0.0927   51.3485 H       1  ZINC000767361237    0.1400
     50 H50        -8.4710    2.0432   52.8282 H       1  ZINC000767361237    0.1400
     51 H51        -6.4981    3.4550   53.2652 H       1  ZINC000767361237    0.1400
     52 H52         0.9613    4.0412   45.6417 H       1  ZINC000767361237    0.1200
     53 H53         0.2941    6.2448   44.7684 H       1  ZINC000767361237    0.1200
@<TRIPOS>BOND
     1     1     2    1
     2     1    33    1
     3     1    34    1
     4     1    35    1
     5     2    32   ar
     6     2     3   ar
     7     3     4   ar
     8     3    36    1
     9     4     5   ar
    10     4    37    1
    11     5     6    1
    12     5    31   ar
    13     6     7    1
    14     6     8    1
    15     6     9    1
    16     8    38    1
    17     8    39    1
    18     8    40    1
    19     9    10    1
    20     9    11    1
    21     9    12    1
    22    11    41    1
    23    12    13    2
    24    12    14    1
    25    14    15    1
    26    15    16    1
    27    15    42    1
    28    15    43    1
    29    16    17    2
    30    16    18    1
    31    18    19    1
    32    18    44    1
    33    18    45    1
    34    19    20    1
    35    19    46    1
    36    19    47    1
    37    20    29   am
    38    20    21   am
    39    21    22    2
    40    21    23    1
    41    23    28   ar
    42    23    24   ar
    43    24    25   ar
    44    24    48    1
    45    25    26   ar
    46    25    49    1
    47    26    27   ar
    48    26    50    1
    49    27    28   ar
    50    27    51    1
    51    28    29    1
    52    29    30    2
    53    31    32   ar
    54    31    52    1
    55    32    53    1
@<TRIPOS>SUBSTRUCTURE
     1 ZINC000767361237        1 TEMP              0 ****  ****    0 ROOT


##########                                Name:    ZINC000006915700
##########                DOCK_Rotatable_Bonds:                   5
##########                         Heavy_Atoms:                  26
##########                    Molecular_Weight:             369.447
##########                DOCK_Rotatable_Bonds:                   5
##########                       Formal_Charge:        -1.04308e-07
##########                     HBond_Acceptors:                   8
##########                        HBond_Donors:                   1
##########                         Heavy_Atoms:                  26
##########                          Grid_Score:          -33.734966
##########                     Grid_vdw_energy:          -31.690805
##########                      Grid_es_energy:           -2.044160
##########           Internal_energy_repulsive:            6.106819

@<TRIPOS>MOLECULE
ZINC000006915700
 45 48 1 0 0
SMALL
USER_CHARGES


@<TRIPOS>ATOM
      1 C1         -8.3093    1.6065   51.8754 C.3     1  <0>        -0.1200
      2 C2         -6.8439    1.6070   51.5235 C.ar    1  <0>        -0.0500
      3 C3         -6.3779    0.7851   50.5129 C.ar    1  <0>        -0.1300
      4 C4         -5.0374    0.7814   50.1857 C.ar    1  <0>        -0.0600
      5 C5         -4.1516    1.6086   50.8764 C.ar    1  <0>        -0.0700
      6 C6         -2.7118    1.6098   50.5299 C.2     1  <0>         0.4400
      7 N7         -2.3060    0.9926   49.4280 N.2     1  <0>        -0.5200
      8 C8         -1.0099    0.9857   49.1022 C.2     1  <0>         0.3600
      9 C9         -0.3004    0.4395   48.0404 C.2     1  <0>        -0.3200
     10 C10         1.0472    0.7536   48.2233 C.2     1  <0>         0.5500
     11 O11         1.9612    0.4346   47.4804 O.2     1  <0>        -0.5200
     12 N12         1.1682    1.4691   49.3584 N.am    1  <0>        -0.5000
     13 N13        -0.1023    1.6249   49.9214 N.pl3   1  <0>        -0.3300
     14 C14        -0.5515    2.2509   51.0482 C.2     1  <0>         0.3900
     15 S15         0.5804    3.0769   52.1165 S.3     1  <0>         0.1200
     16 C16        -0.4897    3.3618   53.5482 C.3     1  <0>        -0.1500
     17 C17         0.2984    4.0447   54.6363 C.2     1  <0>         0.5500
     18 O18         1.2338    4.7613   54.3491 O.2     1  <0>        -0.5200
     19 N19        -0.0363    3.8590   55.9285 N.am    1  <0>        -0.6100
     20 C20         0.6407    4.4646   57.0846 C.3     1  <0>         0.0900
     21 C21        -0.0689    3.9474   58.3537 C.3     1  <0>        -0.1300
     22 C22        -0.7437    2.6383   57.8656 C.3     1  <0>        -0.1400
     23 C23        -1.1458    3.0197   56.4167 C.3     1  <0>         0.1000
     24 N24        -1.8452    2.2367   51.3291 N.2     1  <0>        -0.5600
     25 C25        -4.6277    2.4350   51.8944 C.ar    1  <0>        -0.0500
     26 C26        -5.9712    2.4336   52.2086 C.ar    1  <0>        -0.1300
     27 H27        -8.8281    2.3515   51.2721 H       1  <0>         0.0800
     28 H28        -8.7303    0.6209   51.6767 H       1  <0>         0.0700
     29 H29        -8.4293    1.8467   52.9318 H       1  <0>         0.0700
     30 H30        -7.0646    0.1449   49.9791 H       1  <0>         0.1300
     31 H31        -4.6747    0.1391   49.3969 H       1  <0>         0.1300
     32 H32        -0.7167   -0.1271   47.2205 H       1  <0>         0.1800
     33 H33         1.9966    1.8177   49.7234 H       1  <0>         0.4400
     34 H34        -1.3279    3.9940   53.2553 H       1  <0>         0.1400
     35 H35        -0.8657    2.4073   53.9165 H       1  <0>         0.1400
     36 H36         1.6889    4.1664   57.0985 H       1  <0>         0.0800
     37 H37         0.5627    5.5506   57.0328 H       1  <0>         0.0800
     38 H38         0.6545    3.7378   59.1417 H       1  <0>         0.0900
     39 H39        -0.8170    4.6625   58.6958 H       1  <0>         0.0800
     40 H40        -0.0371    1.8083   57.8729 H       1  <0>         0.0800
     41 H41        -1.6238    2.4053   58.4649 H       1  <0>         0.0900
     42 H42        -2.0805    3.5804   56.4175 H       1  <0>         0.0800
     43 H43        -1.2396    2.1252   55.8010 H       1  <0>         0.0800
     44 H44        -3.9467    3.0776   52.4327 H       1  <0>         0.1400
     45 H45        -6.3411    3.0732   52.9963 H       1  <0>         0.1300
@<TRIPOS>BOND
     1     1     2    1
     2     1    27    1
     3     1    28    1
     4     1    29    1
     5     2    26   ar
     6     2     3   ar
     7     3     4   ar
     8     3    30    1
     9     4     5   ar
    10     4    31    1
    11     5     6    1
    12     5    25   ar
    13     6    24    1
    14     6     7    2
    15     7     8    1
    16     8    13    1
    17     8     9    2
    18     9    10    1
    19     9    32    1
    20    10    11    2
    21    10    12   am
    22    12    13    1
    23    12    33    1
    24    13    14    1
    25    14    15    1
    26    14    24    2
    27    15    16    1
    28    16    17    1
    29    16    34    1
    30    16    35    1
    31    17    18    2
    32    17    19   am
    33    19    23    1
    34    19    20    1
    35    20    21    1
    36    20    36    1
    37    20    37    1
    38    21    22    1
    39    21    38    1
    40    21    39    1
    41    22    23    1
    42    22    40    1
    43    22    41    1
    44    23    42    1
    45    23    43    1
    46    25    26   ar
    47    25    44    1
    48    26    45    1
@<TRIPOS>SUBSTRUCTURE
     1 <0>         1 TEMP              0 ****  ****    0 ROOT


##########                                Name:    ZINC001120957943
##########                DOCK_Rotatable_Bonds:                   4
##########                         Heavy_Atoms:                  27
##########                    Molecular_Weight:             396.802
##########                DOCK_Rotatable_Bonds:                   4
##########                       Formal_Charge:          -0.0199996
##########                     HBond_Acceptors:                  10
##########                        HBond_Donors:                   0
##########                         Heavy_Atoms:                  27
##########                          Grid_Score:          -33.676155
##########                     Grid_vdw_energy:          -34.057915
##########                      Grid_es_energy:            0.381759
##########           Internal_energy_repulsive:            6.497383

@<TRIPOS>MOLECULE
ZINC001120957943
 43 46 1 0 0
SMALL
USER_CHARGES


@<TRIPOS>ATOM
      1 C1          0.6542    1.6411   50.9241 C.3     1  ZINC001120957943    0.0900
      2 N2         -0.4954    1.4043   50.0474 N.pl3   1  ZINC001120957943   -0.6000
      3 C3         -0.2856    0.9447   48.6723 C.3     1  ZINC001120957943    0.2200
      4 C4         -0.2992    2.1283   47.7396 C.2     1  ZINC001120957943    0.1600
      5 N5         -0.8560    3.2904   47.9660 N.2     1  ZINC001120957943   -0.2500
      6 N6         -0.6735    4.0656   46.9524 N.2     1  ZINC001120957943   -0.2800
      7 C7          0.0029    3.4348   46.0411 C.2     1  ZINC001120957943    0.1700
      8 C8          0.4493    3.9327   44.6895 C.3     1  ZINC001120957943   -0.0300
      9 C9          0.8519    2.7181   43.8423 C.3     1  ZINC001120957943   -0.1300
     10 C10         1.7887    1.8211   44.6564 C.3     1  ZINC001120957943   -0.1500
     11 H11         2.5954    2.4233   45.0744 H       1  ZINC001120957943    0.1300
     12 C12         2.3777    0.7410   43.7469 C.3     1  ZINC001120957943    0.4600
     13 F13         3.0379    1.3455   42.6719 F       1  ZINC001120957943   -0.1700
     14 F14         3.2855   -0.0368   44.4739 F       1  ZINC001120957943   -0.1800
     15 F15         1.3483   -0.0737   43.2634 F       1  ZINC001120957943   -0.1800
     16 C16         1.0044    1.1577   45.7945 C.3     1  ZINC001120957943    0.1100
     17 N17         0.2645    2.1913   46.5178 N.pl3   1  ZINC001120957943   -0.4700
     18 C18        -1.7826    1.6153   50.5194 C.ar    1  ZINC001120957943    0.3700
     19 C19        -2.0677    2.7636   51.2787 C.ar    1  ZINC001120957943    0.0500
     20 N20        -3.2785    2.9800   51.7328 N.ar    1  ZINC001120957943   -0.3900
     21 C21        -4.2549    2.1014   51.4729 C.ar    1  ZINC001120957943    0.0400
     22 C22        -5.5607    2.3104   51.9476 C.ar    1  ZINC001120957943   -0.0600
     23 C23        -6.5350    1.4003   51.6680 C.ar    1  ZINC001120957943   -0.0400
     24 Cl24       -8.1466    1.6636   52.2569 Cl      1  ZINC001120957943   -0.0600
     25 C25        -6.2559    0.2603   50.9148 C.ar    1  ZINC001120957943   -0.0800
     26 C26        -5.0026    0.0258   50.4392 C.ar    1  ZINC001120957943   -0.0800
     27 C27        -3.9718    0.9427   50.7081 C.ar    1  ZINC001120957943    0.1400
     28 N28        -2.7313    0.7393   50.2477 N.ar    1  ZINC001120957943   -0.4700
     29 H29         0.9821    2.6756   50.8220 H       1  ZINC001120957943    0.0700
     30 H30         0.3676    1.4513   51.9584 H       1  ZINC001120957943    0.0800
     31 H31         1.4684    0.9726   50.6442 H       1  ZINC001120957943    0.0700
     32 H32         0.6765    0.4374   48.6016 H       1  ZINC001120957943    0.1200
     33 H33        -1.0818    0.2541   48.3946 H       1  ZINC001120957943    0.1000
     34 H34        -0.3692    4.4646   44.2046 H       1  ZINC001120957943    0.1100
     35 H35         1.3038    4.5992   44.8067 H       1  ZINC001120957943    0.1000
     36 H36        -0.0400    2.1562   43.5649 H       1  ZINC001120957943    0.0900
     37 H37         1.3640    3.0565   42.9415 H       1  ZINC001120957943    0.1000
     38 H38         0.3093    0.4265   45.3818 H       1  ZINC001120957943    0.1000
     39 H39         1.6967    0.6630   46.4758 H       1  ZINC001120957943    0.1100
     40 H40        -1.2821    3.4738   51.4902 H       1  ZINC001120957943    0.1700
     41 H41        -5.7910    3.1890   52.5319 H       1  ZINC001120957943    0.1500
     42 H42        -7.0454   -0.4467   50.7065 H       1  ZINC001120957943    0.1400
     43 H43        -4.8006   -0.8615   49.8575 H       1  ZINC001120957943    0.1500
@<TRIPOS>BOND
     1     1     2    1
     2     1    29    1
     3     1    30    1
     4     1    31    1
     5     2     3    1
     6     2    18    1
     7     3     4    1
     8     3    32    1
     9     3    33    1
    10     4    17    1
    11     4     5    2
    12     5     6    1
    13     6     7    2
    14     7    17    1
    15     7     8    1
    16     8     9    1
    17     8    34    1
    18     8    35    1
    19     9    10    1
    20     9    36    1
    21     9    37    1
    22    10    11    1
    23    10    12    1
    24    10    16    1
    25    12    13    1
    26    12    14    1
    27    12    15    1
    28    16    17    1
    29    16    38    1
    30    16    39    1
    31    18    28   ar
    32    18    19   ar
    33    19    20   ar
    34    19    40    1
    35    20    21   ar
    36    21    27   ar
    37    21    22   ar
    38    22    23   ar
    39    22    41    1
    40    23    24    1
    41    23    25   ar
    42    25    26   ar
    43    25    42    1
    44    26    27   ar
    45    26    43    1
    46    27    28   ar
@<TRIPOS>SUBSTRUCTURE
     1 ZINC001120957943        1 TEMP              0 ****  ****    0 ROOT


##########                                Name:    ZINC001271977984
##########                DOCK_Rotatable_Bonds:                   7
##########                         Heavy_Atoms:                  24
##########                    Molecular_Weight:             328.371
##########                DOCK_Rotatable_Bonds:                   7
##########                       Formal_Charge:           0.0200001
##########                     HBond_Acceptors:                   7
##########                        HBond_Donors:                   0
##########                         Heavy_Atoms:                  24
##########                          Grid_Score:          -33.659847
##########                     Grid_vdw_energy:          -32.596169
##########                      Grid_es_energy:           -1.063678
##########           Internal_energy_repulsive:           18.958675

@<TRIPOS>MOLECULE
ZINC001271977984
 44 46 1 0 0
SMALL
USER_CHARGES


@<TRIPOS>ATOM
      1 C1         -0.7570    3.0318   50.1113 C.3     1  ZINC001271977984   -0.1800
      2 C2         -1.2076    1.5759   49.9754 C.3     1  ZINC001271977984    0.1700
      3 H3         -0.5737    0.9403   50.5937 H       1  ZINC001271977984    0.1100
      4 C4         -2.6395    1.4490   50.4272 C.2     1  ZINC001271977984    0.2700
      5 N5         -3.2288    2.2519   51.2613 N.2     1  ZINC001271977984   -0.4700
      6 C6         -4.5125    1.8365   51.4371 C.ar    1  ZINC001271977984    0.0200
      7 C7         -5.5829    2.3036   52.2010 C.ar    1  ZINC001271977984   -0.0600
      8 C8         -6.7902    1.6421   52.1615 C.ar    1  ZINC001271977984   -0.1200
      9 C9         -6.9481    0.5158   51.3678 C.ar    1  ZINC001271977984   -0.0900
     10 C10        -5.8985    0.0427   50.6079 C.ar    1  ZINC001271977984   -0.0900
     11 C11        -4.6764    0.6964   50.6352 C.ar    1  ZINC001271977984    0.0100
     12 O12        -3.4902    0.4934   50.0208 O.3     1  ZINC001271977984   -0.2100
     13 N13        -1.0982    1.1586   48.5711 N.3     1  ZINC001271977984   -0.5300
     14 C14        -1.9007    2.0274   47.6998 C.3     1  ZINC001271977984    0.0000
     15 C15         0.3051    1.1303   48.1380 C.3     1  ZINC001271977984    0.0400
     16 C16         0.5118   -0.0223   47.1533 C.3     1  ZINC001271977984    0.1200
     17 N17         0.7955    0.5182   45.8214 N.am    1  ZINC001271977984   -0.6000
     18 C18        -0.2938    0.7053   44.8597 C.3     1  ZINC001271977984    0.0800
     19 C19         2.0583    0.8432   45.4809 C.2     1  ZINC001271977984    0.6000
     20 O20         2.9624    0.6879   46.2793 O.2     1  ZINC001271977984   -0.5300
     21 C21         2.3436    1.3870   44.1408 C.2     1  ZINC001271977984   -0.0800
     22 C22         2.0572    2.6423   43.6998 C.2     1  ZINC001271977984    0.0200
     23 O23         2.4842    2.7176   42.4291 O.3     1  ZINC001271977984   -0.2000
     24 C24         3.0210    1.5352   42.0964 C.2     1  ZINC001271977984    0.1800
     25 N25         2.9482    0.7303   43.1138 N.2     1  ZINC001271977984   -0.4600
     26 H26         0.2787    3.1237   49.7845 H       1  ZINC001271977984    0.0800
     27 H27        -1.3909    3.6674   49.4930 H       1  ZINC001271977984    0.0800
     28 H28        -0.8381    3.3415   51.1532 H       1  ZINC001271977984    0.0700
     29 H29        -5.4649    3.1801   52.8208 H       1  ZINC001271977984    0.1400
     30 H30        -7.6192    2.0025   52.7525 H       1  ZINC001271977984    0.1400
     31 H31        -7.8995    0.0052   51.3449 H       1  ZINC001271977984    0.1400
     32 H32        -6.0289   -0.8351   49.9922 H       1  ZINC001271977984    0.1400
     33 H33        -1.5484    3.0552   47.7874 H       1  ZINC001271977984    0.0300
     34 H34        -1.8018    1.6962   46.6661 H       1  ZINC001271977984    0.0700
     35 H35        -2.9475    1.9754   47.9994 H       1  ZINC001271977984    0.1100
     36 H36         0.5542    2.0733   47.6511 H       1  ZINC001271977984    0.0500
     37 H37         0.9502    0.9877   49.0050 H       1  ZINC001271977984    0.0800
     38 H38         1.3505   -0.6355   47.4827 H       1  ZINC001271977984    0.0900
     39 H39        -0.3907   -0.6321   47.1132 H       1  ZINC001271977984    0.0900
     40 H40        -0.6517    1.7336   44.9116 H       1  ZINC001271977984    0.0600
     41 H41         0.0703    0.4976   43.8535 H       1  ZINC001271977984    0.0900
     42 H42        -1.1104    0.0238   45.0985 H       1  ZINC001271977984    0.0700
     43 H43         1.5776    3.4281   44.2643 H       1  ZINC001271977984    0.2300
     44 H44         3.4495    1.2913   41.1355 H       1  ZINC001271977984    0.2600
@<TRIPOS>BOND
     1     1     2    1
     2     1    26    1
     3     1    27    1
     4     1    28    1
     5     2     3    1
     6     2     4    1
     7     2    13    1
     8     4    12    1
     9     4     5    2
    10     5     6    1
    11     6    11   ar
    12     6     7   ar
    13     7     8   ar
    14     7    29    1
    15     8     9   ar
    16     8    30    1
    17     9    10   ar
    18     9    31    1
    19    10    11   ar
    20    10    32    1
    21    11    12    1
    22    13    14    1
    23    13    15    1
    24    14    33    1
    25    14    34    1
    26    14    35    1
    27    15    16    1
    28    15    36    1
    29    15    37    1
    30    16    17    1
    31    16    38    1
    32    16    39    1
    33    17    18    1
    34    17    19   am
    35    18    40    1
    36    18    41    1
    37    18    42    1
    38    19    20    2
    39    19    21    1
    40    21    25    1
    41    21    22    2
    42    22    23    1
    43    22    43    1
    44    23    24    1
    45    24    25    2
    46    24    44    1
@<TRIPOS>SUBSTRUCTURE
     1 ZINC001271977984        1 TEMP              0 ****  ****    0 ROOT


##########                                Name:    ZINC000859496582
##########                DOCK_Rotatable_Bonds:                  10
##########                         Heavy_Atoms:                  26
##########                    Molecular_Weight:             361.438
##########                DOCK_Rotatable_Bonds:                  10
##########                       Formal_Charge:           0.0100006
##########                     HBond_Acceptors:                   6
##########                        HBond_Donors:                   0
##########                         Heavy_Atoms:                  26
##########                          Grid_Score:          -33.652412
##########                     Grid_vdw_energy:          -32.394455
##########                      Grid_es_energy:           -1.257959
##########           Internal_energy_repulsive:           18.161251

@<TRIPOS>MOLECULE
ZINC000859496582
 53 54 1 0 0
SMALL
USER_CHARGES


@<TRIPOS>ATOM
      1 C1          0.2095   -0.0177   60.5588 C.3     1  ZINC000859496582    0.0300
      2 O2         -0.4308    1.2623   60.8039 O.3     1  ZINC000859496582   -0.3600
      3 C3         -0.1938    2.2418   59.9173 C.2     1  ZINC000859496582    0.4600
      4 O4         -0.6054    3.3585   60.1264 O.2     1  ZINC000859496582   -0.5100
      5 C5          0.5854    1.9489   58.6611 C.3     1  ZINC000859496582   -0.1100
      6 C6          0.0957    2.8595   57.5332 C.3     1  ZINC000859496582   -0.1100
      7 C7         -1.3112    2.4338   57.1085 C.3     1  ZINC000859496582   -0.1200
      8 C8         -1.7939    3.3333   55.9688 C.3     1  ZINC000859496582    0.0700
      9 O9         -1.0804    2.9954   54.7502 O.3     1  ZINC000859496582   -0.3500
     10 C10        -1.3122    3.7649   53.6751 C.2     1  ZINC000859496582    0.4700
     11 O11        -2.0223    4.7377   53.7702 O.2     1  ZINC000859496582   -0.5000
     12 C12        -0.6867    3.4152   52.3493 C.3     1  ZINC000859496582   -0.1000
     13 H13         0.0734    2.6480   52.4966 H       1  ZINC000859496582    0.1200
     14 C14        -0.0413    4.6639   51.7439 C.3     1  ZINC000859496582   -0.1100
     15 C15         0.6227    4.3029   50.4131 C.3     1  ZINC000859496582   -0.1300
     16 C16        -0.4419    3.7882   49.4391 C.3     1  ZINC000859496582    0.1100
     17 N17        -1.1657    2.6779   50.0731 N.am    1  ZINC000859496582   -0.6100
     18 C18        -1.2770    1.4871   49.4518 C.2     1  ZINC000859496582    0.5700
     19 O19        -1.8784    0.5763   49.9869 O.2     1  ZINC000859496582   -0.5300
     20 C20        -0.6676    1.2886   48.1195 C.ar    1  ZINC000859496582   -0.1400
     21 C21        -1.3999    1.5691   46.9648 C.ar    1  ZINC000859496582   -0.0900
     22 C22        -0.8252    1.3821   45.7248 C.ar    1  ZINC000859496582   -0.1200
     23 C23         0.4741    0.9171   45.6240 C.ar    1  ZINC000859496582   -0.0600
     24 C24         1.0953    0.7148   44.2660 C.3     1  ZINC000859496582   -0.1200
     25 C25         1.2057    0.6377   46.7647 C.ar    1  ZINC000859496582   -0.1200
     26 C26         0.6445    0.8254   48.0109 C.ar    1  ZINC000859496582   -0.0600
     27 C27        -1.7658    2.8898   51.3974 C.3     1  ZINC000859496582    0.1100
     28 H28         1.2915    0.1132   60.5493 H       1  ZINC000859496582    0.0600
     29 H29        -0.0649   -0.7181   61.3476 H       1  ZINC000859496582    0.1000
     30 H30        -0.1177   -0.4090   59.5956 H       1  ZINC000859496582    0.0600
     31 H31         1.6451    2.1302   58.8403 H       1  ZINC000859496582    0.1100
     32 H32         0.4380    0.9069   58.3767 H       1  ZINC000859496582    0.1100
     33 H33         0.0731    3.8914   57.8833 H       1  ZINC000859496582    0.0800
     34 H34         0.7720    2.7793   56.6821 H       1  ZINC000859496582    0.0800
     35 H35        -1.2908    1.3980   56.7701 H       1  ZINC000859496582    0.0800
     36 H36        -1.9900    2.5258   57.9564 H       1  ZINC000859496582    0.0800
     37 H37        -2.8630    3.1852   55.8169 H       1  ZINC000859496582    0.0700
     38 H38        -1.6042    4.3760   56.2237 H       1  ZINC000859496582    0.0700
     39 H39        -0.8059    5.4221   51.5744 H       1  ZINC000859496582    0.0800
     40 H40         0.7101    5.0536   52.4307 H       1  ZINC000859496582    0.0800
     41 H41         1.1021    5.1875   49.9940 H       1  ZINC000859496582    0.0900
     42 H42         1.3703    3.5271   50.5782 H       1  ZINC000859496582    0.0700
     43 H43        -1.1395    4.5916   49.2024 H       1  ZINC000859496582    0.0700
     44 H44         0.0380    3.4372   48.5255 H       1  ZINC000859496582    0.1000
     45 H45        -2.4145    1.9313   47.0421 H       1  ZINC000859496582    0.1300
     46 H46        -1.3908    1.5987   44.8305 H       1  ZINC000859496582    0.1300
     47 H47         1.5922    1.6331   43.9534 H       1  ZINC000859496582    0.0800
     48 H48         1.8244   -0.0937   44.3169 H       1  ZINC000859496582    0.0700
     49 H49         0.3184    0.4587   43.5457 H       1  ZINC000859496582    0.0700
     50 H50         2.2195    0.2754   46.6792 H       1  ZINC000859496582    0.1300
     51 H51         1.2168    0.6071   48.9005 H       1  ZINC000859496582    0.1300
     52 H52        -2.1596    1.9462   51.7753 H       1  ZINC000859496582    0.1100
     53 H53        -2.5716    3.6199   51.3210 H       1  ZINC000859496582    0.0800
@<TRIPOS>BOND
     1     1     2    1
     2     1    28    1
     3     1    29    1
     4     1    30    1
     5     2     3    1
     6     3     4    2
     7     3     5    1
     8     5     6    1
     9     5    31    1
    10     5    32    1
    11     6     7    1
    12     6    33    1
    13     6    34    1
    14     7     8    1
    15     7    35    1
    16     7    36    1
    17     8     9    1
    18     8    37    1
    19     8    38    1
    20     9    10    1
    21    10    11    2
    22    10    12    1
    23    12    13    1
    24    12    27    1
    25    12    14    1
    26    14    15    1
    27    14    39    1
    28    14    40    1
    29    15    16    1
    30    15    41    1
    31    15    42    1
    32    16    17    1
    33    16    43    1
    34    16    44    1
    35    17    18   am
    36    17    27    1
    37    18    19    2
    38    18    20    1
    39    20    26   ar
    40    20    21   ar
    41    21    22   ar
    42    21    45    1
    43    22    23   ar
    44    22    46    1
    45    23    24    1
    46    23    25   ar
    47    24    47    1
    48    24    48    1
    49    24    49    1
    50    25    26   ar
    51    25    50    1
    52    26    51    1
    53    27    52    1
    54    27    53    1
@<TRIPOS>SUBSTRUCTURE
     1 ZINC000859496582        1 TEMP              0 ****  ****    0 ROOT


##########                                Name:    ZINC000002634904
##########                DOCK_Rotatable_Bonds:                   7
##########                         Heavy_Atoms:                  31
##########                    Molecular_Weight:             423.498
##########                DOCK_Rotatable_Bonds:                   7
##########                       Formal_Charge:        -7.45058e-08
##########                     HBond_Acceptors:                   7
##########                        HBond_Donors:                   1
##########                         Heavy_Atoms:                  31
##########                          Grid_Score:          -33.639851
##########                     Grid_vdw_energy:          -32.982265
##########                      Grid_es_energy:           -0.657585
##########           Internal_energy_repulsive:            5.763976

@<TRIPOS>MOLECULE
ZINC000002634904
 48 51 1 0 0
SMALL
USER_CHARGES


@<TRIPOS>ATOM
      1 N1        -13.9656   -0.9830   55.1920 N.1     1  ZINC000002634904   -0.4100
      2 C2        -13.0035   -0.5125   54.8135 C.1     1  ZINC000002634904    0.2500
      3 C3        -11.7906    0.0808   54.3363 C.ar    1  ZINC000002634904   -0.0400
      4 C4        -10.7392    0.3346   55.2216 C.ar    1  ZINC000002634904   -0.0500
      5 C5         -9.5745    0.9052   54.7592 C.ar    1  ZINC000002634904   -0.1400
      6 C6         -9.4435    1.2290   53.4127 C.ar    1  ZINC000002634904    0.1700
      7 N7         -8.2616    1.8071   52.9476 N.am    1  ZINC000002634904   -0.6700
      8 C8         -7.5546    1.2034   51.9719 C.2     1  ZINC000002634904    0.5400
      9 O9         -7.9455    0.1576   51.4981 O.2     1  ZINC000002634904   -0.5000
     10 C10        -6.2783    1.8277   51.4697 C.3     1  ZINC000002634904   -0.1700
     11 S11        -5.1084    0.5245   51.0125 S.3     1  ZINC000002634904    0.1300
     12 C12        -3.6986    1.5042   50.6159 C.ar    1  ZINC000002634904    0.2100
     13 N13        -3.4845    2.6381   51.2738 N.ar    1  ZINC000002634904   -0.2900
     14 N14        -2.4685    3.3853   51.0179 N.ar    1  ZINC000002634904   -0.1600
     15 C15        -1.5966    3.0375   50.0774 C.ar    1  ZINC000002634904    0.0600
     16 C16        -0.4260    3.8962   49.7817 C.ar    1  ZINC000002634904   -0.0500
     17 C17         0.7433    3.7678   50.5306 C.ar    1  ZINC000002634904   -0.0800
     18 C18         1.8303    4.5704   50.2505 C.ar    1  ZINC000002634904   -0.1200
     19 C19         1.7614    5.5014   49.2296 C.ar    1  ZINC000002634904   -0.1000
     20 C20         0.6041    5.6334   48.4833 C.ar    1  ZINC000002634904   -0.1200
     21 C21        -0.4873    4.8321   48.7499 C.ar    1  ZINC000002634904   -0.0800
     22 C22        -1.8029    1.8385   49.3658 C.ar    1  ZINC000002634904    0.2300
     23 C23        -0.8560    1.4124   48.3090 C.ar    1  ZINC000002634904   -0.0700
     24 C24         0.3313    0.7665   48.6518 C.ar    1  ZINC000002634904   -0.0700
     25 C25         1.2091    0.3716   47.6630 C.ar    1  ZINC000002634904   -0.1200
     26 C26         0.9131    0.6153   46.3338 C.ar    1  ZINC000002634904   -0.0900
     27 C27        -0.2630    1.2561   45.9875 C.ar    1  ZINC000002634904   -0.1200
     28 C28        -1.1513    1.6506   46.9670 C.ar    1  ZINC000002634904   -0.0700
     29 N29        -2.8645    1.0949   49.6683 N.ar    1  ZINC000002634904   -0.4400
     30 C30       -10.4876    0.9775   52.5286 C.ar    1  ZINC000002634904   -0.1200
     31 C31       -11.6532    0.4022   52.9829 C.ar    1  ZINC000002634904   -0.0500
     32 H32       -10.8405    0.0838   56.2672 H       1  ZINC000002634904    0.1400
     33 H33        -8.7618    1.1019   55.4427 H       1  ZINC000002634904    0.1400
     34 H34        -7.9491    2.6435   53.3265 H       1  ZINC000002634904    0.4200
     35 H35        -6.4942    2.4445   50.5974 H       1  ZINC000002634904    0.1300
     36 H36        -5.8436    2.4472   52.2541 H       1  ZINC000002634904    0.1300
     37 H37         0.7980    3.0418   51.3283 H       1  ZINC000002634904    0.1300
     38 H38         2.7364    4.4718   50.8297 H       1  ZINC000002634904    0.1300
     39 H39         2.6145    6.1278   49.0145 H       1  ZINC000002634904    0.1300
     40 H40         0.5562    6.3620   47.6875 H       1  ZINC000002634904    0.1300
     41 H41        -1.3901    4.9359   48.1663 H       1  ZINC000002634904    0.1200
     42 H42         0.5636    0.5760   49.6893 H       1  ZINC000002634904    0.1300
     43 H43         2.1291   -0.1285   47.9274 H       1  ZINC000002634904    0.1300
     44 H44         1.6032    0.3043   45.5634 H       1  ZINC000002634904    0.1300
     45 H45        -0.4885    1.4440   44.9482 H       1  ZINC000002634904    0.1300
     46 H46        -2.0691    2.1508   46.6954 H       1  ZINC000002634904    0.1300
     47 H47       -10.3822    1.2299   51.4838 H       1  ZINC000002634904    0.1500
     48 H48       -12.4633    0.2069   52.2959 H       1  ZINC000002634904    0.1400
@<TRIPOS>BOND
     1     1     2    3
     2     2     3    1
     3     3    31   ar
     4     3     4   ar
     5     4     5   ar
     6     4    32    1
     7     5     6   ar
     8     5    33    1
     9     6     7    1
    10     6    30   ar
    11     7     8   am
    12     7    34    1
    13     8     9    2
    14     8    10    1
    15    10    11    1
    16    10    35    1
    17    10    36    1
    18    11    12    1
    19    12    29   ar
    20    12    13   ar
    21    13    14   ar
    22    14    15   ar
    23    15    16    1
    24    15    22   ar
    25    16    21   ar
    26    16    17   ar
    27    17    18   ar
    28    17    37    1
    29    18    19   ar
    30    18    38    1
    31    19    20   ar
    32    19    39    1
    33    20    21   ar
    34    20    40    1
    35    21    41    1
    36    22    23    1
    37    22    29   ar
    38    23    28   ar
    39    23    24   ar
    40    24    25   ar
    41    24    42    1
    42    25    26   ar
    43    25    43    1
    44    26    27   ar
    45    26    44    1
    46    27    28   ar
    47    27    45    1
    48    28    46    1
    49    30    31   ar
    50    30    47    1
    51    31    48    1
@<TRIPOS>SUBSTRUCTURE
     1 ZINC000002634904        1 TEMP              0 ****  ****    0 ROOT


##########                                Name:    ZINC000771225867
##########                DOCK_Rotatable_Bonds:                   9
##########                         Heavy_Atoms:                  23
##########                    Molecular_Weight:             355.802
##########                DOCK_Rotatable_Bonds:                   9
##########                       Formal_Charge:        -3.12924e-07
##########                     HBond_Acceptors:                   9
##########                        HBond_Donors:                   3
##########                         Heavy_Atoms:                  23
##########                          Grid_Score:          -33.637817
##########                     Grid_vdw_energy:          -33.224117
##########                      Grid_es_energy:           -0.413699
##########           Internal_energy_repulsive:           12.287273

@<TRIPOS>MOLECULE
ZINC000771225867
 37 38 1 0 0
SMALL
USER_CHARGES


@<TRIPOS>ATOM
      1 C1          0.1055    4.8414   42.3135 C.3     1  ZINC000771225867    0.0400
      2 O2          0.2409    3.7296   43.2011 O.3     1  ZINC000771225867   -0.3600
      3 C3          0.0478    3.9678   44.5155 C.2     1  ZINC000771225867    0.5500
      4 O4         -0.2158    5.0928   44.8978 O.2     1  ZINC000771225867   -0.4900
      5 C5          0.1520    2.9092   45.4492 C.2     1  ZINC000771225867   -0.3400
      6 C6          0.4103    1.5957   45.1556 C.2     1  ZINC000771225867    0.2700
      7 Cl7         0.6566    1.0188   43.5370 Cl      1  ZINC000771225867    0.0400
      8 N8          0.4550    0.8154   46.2058 N.2     1  ZINC000771225867   -0.5500
      9 C9          0.2542    1.3672   47.3684 C.2     1  ZINC000771225867    0.3400
     10 N10         0.2674    0.6926   48.5698 N.pl3   1  ZINC000771225867   -0.6700
     11 C11         0.2917    1.4403   49.8294 C.3     1  ZINC000771225867    0.1700
     12 C12        -1.1166    1.8007   50.2268 C.ar    1  ZINC000771225867   -0.0800
     13 C13        -1.3718    3.0113   50.8436 C.ar    1  ZINC000771225867   -0.1300
     14 C14        -2.6629    3.3450   51.2094 C.ar    1  ZINC000771225867   -0.0800
     15 C15        -3.7012    2.4690   50.9593 C.ar    1  ZINC000771225867   -0.2000
     16 C16        -3.4478    1.2533   50.3403 C.ar    1  ZINC000771225867    0.1300
     17 O17        -4.4676    0.3899   50.0926 O.3     1  ZINC000771225867   -0.2900
     18 C18        -5.3327    0.0771   51.1861 C.3     1  ZINC000771225867    0.0400
     19 C19        -6.6986    0.6593   50.9285 C.2     1  ZINC000771225867    0.5200
     20 N20        -7.7651    0.2062   51.6168 N.am    1  ZINC000771225867   -0.8500
     21 O21        -6.8381    1.5356   50.1017 O.2     1  ZINC000771225867   -0.5200
     22 C22        -2.1525    0.9233   49.9692 C.ar    1  ZINC000771225867   -0.1200
     23 S23        -0.0195    3.0455   47.1973 S.3     1  ZINC000771225867    0.2200
     24 H24        -0.9025    5.2486   42.3924 H       1  ZINC000771225867    0.0600
     25 H25         0.8300    5.6105   42.5813 H       1  ZINC000771225867    0.0600
     26 H26         0.2857    4.5131   41.2898 H       1  ZINC000771225867    0.1000
     27 H27         0.2608   -0.2773   48.5816 H       1  ZINC000771225867    0.4200
     28 H28         0.7428    0.8254   50.6083 H       1  ZINC000771225867    0.0900
     29 H29         0.8770    2.3506   49.7004 H       1  ZINC000771225867    0.0900
     30 H30        -0.5613    3.6974   51.0404 H       1  ZINC000771225867    0.1300
     31 H31        -2.8597    4.2912   51.6915 H       1  ZINC000771225867    0.1300
     32 H32        -4.7093    2.7300   51.2455 H       1  ZINC000771225867    0.1300
     33 H33        -5.4124   -1.0051   51.2883 H       1  ZINC000771225867    0.1000
     34 H34        -4.9250    0.4998   52.1044 H       1  ZINC000771225867    0.1000
     35 H35        -8.6441    0.5817   51.4517 H       1  ZINC000771225867    0.4000
     36 H36        -7.6537   -0.4955   52.2771 H       1  ZINC000771225867    0.4100
     37 H37        -1.9526   -0.0223   49.4873 H       1  ZINC000771225867    0.1400
@<TRIPOS>BOND
     1     1     2    1
     2     1    24    1
     3     1    25    1
     4     1    26    1
     5     2     3    1
     6     3     4    2
     7     3     5    1
     8     5    23    1
     9     5     6    2
    10     6     7    1
    11     6     8    1
    12     8     9    2
    13     9    10    1
    14     9    23    1
    15    10    11    1
    16    10    27    1
    17    11    12    1
    18    11    28    1
    19    11    29    1
    20    12    22   ar
    21    12    13   ar
    22    13    14   ar
    23    13    30    1
    24    14    15   ar
    25    14    31    1
    26    15    16   ar
    27    15    32    1
    28    16    17    1
    29    16    22   ar
    30    17    18    1
    31    18    19    1
    32    18    33    1
    33    18    34    1
    34    19    20   am
    35    19    21    2
    36    20    35    1
    37    20    36    1
    38    22    37    1
@<TRIPOS>SUBSTRUCTURE
     1 ZINC000771225867        1 TEMP              0 ****  ****    0 ROOT


##########                                Name:    ZINC000501032137
##########                DOCK_Rotatable_Bonds:                  10
##########                         Heavy_Atoms:                  25
##########                    Molecular_Weight:             407.307
##########                DOCK_Rotatable_Bonds:                  10
##########                       Formal_Charge:           0.0099998
##########                     HBond_Acceptors:                   5
##########                        HBond_Donors:                   1
##########                         Heavy_Atoms:                  25
##########                          Grid_Score:          -33.605415
##########                     Grid_vdw_energy:          -33.439110
##########                      Grid_es_energy:           -0.166307
##########           Internal_energy_repulsive:           11.640367

@<TRIPOS>MOLECULE
ZINC000501032137
 48 50 1 0 0
SMALL
USER_CHARGES


@<TRIPOS>ATOM
      1 C1          3.4028   -0.1483   51.3236 C.3     1  ZINC000501032137   -0.1500
      2 C2          2.8337    0.7712   50.2411 C.3     1  ZINC000501032137   -0.1200
      3 C3          2.2163    2.0085   50.8959 C.3     1  ZINC000501032137    0.0600
      4 O4          1.5683    2.8015   49.8993 O.3     1  ZINC000501032137   -0.3800
      5 C5          0.5830    3.6966   50.4189 C.3     1  ZINC000501032137    0.0500
      6 C6         -0.7757    3.3798   49.7908 C.3     1  ZINC000501032137    0.1600
      7 H7         -1.4691    4.1959   49.9940 H       1  ZINC000501032137    0.1000
      8 C8         -1.3245    2.0833   50.3896 C.3     1  ZINC000501032137   -0.0900
      9 C9         -2.6637    2.3515   51.0264 C.ar    1  ZINC000501032137   -0.0600
     10 C10        -2.7685    3.2694   52.0545 C.ar    1  ZINC000501032137   -0.0900
     11 C11        -3.9970    3.5159   52.6391 C.ar    1  ZINC000501032137   -0.1100
     12 C12        -5.1206    2.8445   52.1958 C.ar    1  ZINC000501032137   -0.0900
     13 C13        -5.0162    1.9257   51.1668 C.ar    1  ZINC000501032137   -0.0800
     14 Br14       -6.5534    1.0067   50.5598 Br      1  ZINC000501032137   -0.0600
     15 C15        -3.7881    1.6836   50.5784 C.ar    1  ZINC000501032137   -0.0800
     16 N16        -0.6193    3.2211   48.3428 N.am    1  ZINC000501032137   -0.7100
     17 C17        -0.4898    4.3075   47.5559 C.2     1  ZINC000501032137    0.6100
     18 O18        -0.5014    5.4195   48.0479 O.2     1  ZINC000501032137   -0.5200
     19 C19        -0.3342    4.1478   46.0987 C.2     1  ZINC000501032137   -0.0800
     20 C20        -0.5014    2.9988   45.3888 C.2     1  ZINC000501032137    0.0800
     21 C21        -0.8802    1.6494   45.9426 C.3     1  ZINC000501032137   -0.0800
     22 C22        -0.6231    0.4262   45.0602 C.3     1  ZINC000501032137   -0.1700
     23 C23         0.2550    0.6830   46.2866 C.3     1  ZINC000501032137   -0.1500
     24 O24        -0.2652    3.2964   44.1011 O.3     1  ZINC000501032137   -0.2000
     25 C25         0.0405    4.5992   44.0211 C.2     1  ZINC000501032137    0.1800
     26 N26        -0.0021    5.1227   45.2095 N.2     1  ZINC000501032137   -0.4600
     27 H27         4.1685    0.3847   51.8873 H       1  ZINC000501032137    0.0600
     28 H28         2.6028   -0.4548   51.9974 H       1  ZINC000501032137    0.0600
     29 H29         3.8427   -1.0298   50.8571 H       1  ZINC000501032137    0.0600
     30 H30         3.6338    1.0777   49.5673 H       1  ZINC000501032137    0.0700
     31 H31         2.0681    0.2382   49.6773 H       1  ZINC000501032137    0.0700
     32 H32         1.4870    1.6979   51.6440 H       1  ZINC000501032137    0.0500
     33 H33         3.0002    2.5957   51.3744 H       1  ZINC000501032137    0.0500
     34 H34         0.5195    3.5789   51.5006 H       1  ZINC000501032137    0.0700
     35 H35         0.8629    4.7229   50.1809 H       1  ZINC000501032137    0.0600
     36 H36        -1.4395    1.3392   49.6015 H       1  ZINC000501032137    0.0900
     37 H37        -0.6319    1.7097   51.1438 H       1  ZINC000501032137    0.0800
     38 H38        -1.8906    3.7940   52.4014 H       1  ZINC000501032137    0.1200
     39 H39        -4.0784    4.2330   53.4426 H       1  ZINC000501032137    0.1300
     40 H40        -6.0802    3.0369   52.6528 H       1  ZINC000501032137    0.1300
     41 H41        -3.7062    0.9667   49.7749 H       1  ZINC000501032137    0.1200
     42 H42        -0.6089    2.3340   47.9506 H       1  ZINC000501032137    0.4100
     43 H43        -1.7646    1.6340   46.5795 H       1  ZINC000501032137    0.1500
     44 H44        -1.3386   -0.3942   45.1165 H       1  ZINC000501032137    0.1100
     45 H45        -0.1800    0.5974   44.0793 H       1  ZINC000501032137    0.1000
     46 H46         1.2758    1.0232   46.1124 H       1  ZINC000501032137    0.1000
     47 H47         0.1172    0.0315   47.1496 H       1  ZINC000501032137    0.1100
     48 H48         0.2806    5.1304   43.1119 H       1  ZINC000501032137    0.2500
@<TRIPOS>BOND
     1     1     2    1
     2     1    27    1
     3     1    28    1
     4     1    29    1
     5     2     3    1
     6     2    30    1
     7     2    31    1
     8     3     4    1
     9     3    32    1
    10     3    33    1
    11     4     5    1
    12     5     6    1
    13     5    34    1
    14     5    35    1
    15     6     7    1
    16     6     8    1
    17     6    16    1
    18     8     9    1
    19     8    36    1
    20     8    37    1
    21     9    15   ar
    22     9    10   ar
    23    10    11   ar
    24    10    38    1
    25    11    12   ar
    26    11    39    1
    27    12    13   ar
    28    12    40    1
    29    13    14    1
    30    13    15   ar
    31    15    41    1
    32    16    17   am
    33    16    42    1
    34    17    18    2
    35    17    19    1
    36    19    26    1
    37    19    20    2
    38    20    21    1
    39    20    24    1
    40    21    23    1
    41    21    22    1
    42    21    43    1
    43    22    23    1
    44    22    44    1
    45    22    45    1
    46    23    46    1
    47    23    47    1
    48    24    25    1
    49    25    26    2
    50    25    48    1
@<TRIPOS>SUBSTRUCTURE
     1 ZINC000501032137        1 TEMP              0 ****  ****    0 ROOT


##########                                Name:    ZINC000193795672
##########                DOCK_Rotatable_Bonds:                  10
##########                         Heavy_Atoms:                  23
##########                    Molecular_Weight:              332.47
##########                DOCK_Rotatable_Bonds:                  10
##########                       Formal_Charge:        -2.98023e-07
##########                     HBond_Acceptors:                   6
##########                        HBond_Donors:                   3
##########                         Heavy_Atoms:                  23
##########                          Grid_Score:          -33.597404
##########                     Grid_vdw_energy:          -33.201012
##########                      Grid_es_energy:           -0.396391
##########           Internal_energy_repulsive:           11.229068

@<TRIPOS>MOLECULE
ZINC000193795672
 47 48 1 0 0
SMALL
USER_CHARGES


@<TRIPOS>ATOM
      1 C1          1.3266    1.7731   49.7808 C.3     1  <0>        -0.1000
      2 C2         -0.1336    1.7437   50.1525 C.ar    1  <0>        -0.2000
      3 C3         -0.5972    2.4824   51.2328 C.ar    1  <0>        -0.0300
      4 C4         -1.9449    2.4280   51.5401 C.ar    1  <0>        -0.2400
      5 C5         -2.7851    1.6395   50.7610 C.ar    1  <0>         0.4000
      6 N6         -4.1415    1.5757   51.0586 N.pl3   1  <0>        -0.7300
      7 C7         -4.8782    0.3259   50.8549 C.3     1  <0>         0.1300
      8 C8         -6.3103    0.6432   50.4197 C.3     1  <0>        -0.1400
      9 C9         -7.0551    1.3204   51.5718 C.3     1  <0>         0.1400
     10 N10        -8.3091    0.6077   51.8285 N.am    1  <0>        -0.7500
     11 C11        -9.2043    1.1117   52.7007 C.2     1  <0>         0.7100
     12 O12        -8.9720    2.1588   53.2735 O.2     1  <0>        -0.5900
     13 N13       -10.3572    0.4552   52.9381 N.am    1  <0>        -0.7400
     14 C14       -11.3295    1.0022   53.8876 C.3     1  <0>         0.1700
     15 H15       -10.8026    1.5135   54.6932 H       1  <0>         0.0900
     16 C16       -12.2443    1.9942   53.1663 C.3     1  <0>        -0.1700
     17 C17       -12.1700   -0.1361   54.4697 C.3     1  <0>        -0.0600
     18 C18       -11.4156   -0.7913   55.5978 C.2     1  <0>        -0.1700
     19 C19       -10.1598   -0.5100   55.9486 C.2     1  <0>        -0.1400
     20 C20        -9.6756   -1.2413   57.0195 C.2     1  <0>        -0.1300
     21 C21       -10.5382   -2.1165   57.5385 C.2     1  <0>        -0.2100
     22 S22       -12.0590   -2.0384   56.6582 S.3     1  <0>         0.0900
     23 N23        -2.3046    0.9496   49.7380 N.ar    1  <0>        -0.5400
     24 C24        -1.0248    0.9863   49.4188 C.ar    1  <0>         0.1500
     25 H25         1.5051    2.5828   49.0733 H       1  <0>         0.0700
     26 H26         1.9264    1.9344   50.6765 H       1  <0>         0.0600
     27 H27         1.6043    0.8234   49.3236 H       1  <0>         0.0700
     28 H28         0.0792    3.0856   51.8202 H       1  <0>         0.1300
     29 H29        -2.3393    2.9898   52.3740 H       1  <0>         0.1300
     30 H30        -4.6002    2.3588   51.4013 H       1  <0>         0.4000
     31 H31        -4.3858   -0.2641   50.0818 H       1  <0>         0.0700
     32 H32        -4.8984   -0.2399   51.7862 H       1  <0>         0.0700
     33 H33        -6.2888    1.3111   49.5585 H       1  <0>         0.0800
     34 H34        -6.8213   -0.2811   50.1501 H       1  <0>         0.0800
     35 H35        -6.4350    1.2988   52.4679 H       1  <0>         0.0700
     36 H36        -7.2730    2.3546   51.3056 H       1  <0>         0.0700
     37 H37        -8.4950   -0.2271   51.3707 H       1  <0>         0.4000
     38 H38       -10.5431   -0.3796   52.4804 H       1  <0>         0.3900
     39 H39       -12.7712    1.4829   52.3607 H       1  <0>         0.0600
     40 H40       -12.9678    2.4012   53.8727 H       1  <0>         0.0700
     41 H41       -11.6456    2.8051   52.7517 H       1  <0>         0.0700
     42 H42       -13.1118    0.2633   54.8460 H       1  <0>         0.1000
     43 H43       -12.3725   -0.8725   53.6921 H       1  <0>         0.0800
     44 H44        -9.5658    0.2319   55.4357 H       1  <0>         0.1400
     45 H45        -8.6751   -1.1132   57.4055 H       1  <0>         0.1400
     46 H46       -10.3351   -2.7704   58.3737 H       1  <0>         0.1600
     47 H47        -0.6686    0.4103   48.5777 H       1  <0>         0.1500
@<TRIPOS>BOND
     1     1     2    1
     2     1    25    1
     3     1    26    1
     4     1    27    1
     5     2    24   ar
     6     2     3   ar
     7     3     4   ar
     8     3    28    1
     9     4     5   ar
    10     4    29    1
    11     5     6    1
    12     5    23   ar
    13     6     7    1
    14     6    30    1
    15     7     8    1
    16     7    31    1
    17     7    32    1
    18     8     9    1
    19     8    33    1
    20     8    34    1
    21     9    10    1
    22     9    35    1
    23     9    36    1
    24    10    11   am
    25    10    37    1
    26    11    12    2
    27    11    13   am
    28    13    14    1
    29    13    38    1
    30    14    15    1
    31    14    16    1
    32    14    17    1
    33    16    39    1
    34    16    40    1
    35    16    41    1
    36    17    18    1
    37    17    42    1
    38    17    43    1
    39    18    22    1
    40    18    19    2
    41    19    20    1
    42    19    44    1
    43    20    21    2
    44    20    45    1
    45    21    22    1
    46    21    46    1
    47    23    24   ar
    48    24    47    1
@<TRIPOS>SUBSTRUCTURE
     1 <0>         1 TEMP              0 ****  ****    0 ROOT


##########                                Name:    ZINC000981700465
##########                DOCK_Rotatable_Bonds:                   9
##########                         Heavy_Atoms:                  26
##########                    Molecular_Weight:             356.428
##########                DOCK_Rotatable_Bonds:                   9
##########                       Formal_Charge:               -0.01
##########                     HBond_Acceptors:                   8
##########                        HBond_Donors:                   3
##########                         Heavy_Atoms:                  26
##########                          Grid_Score:          -33.563999
##########                     Grid_vdw_energy:          -32.327496
##########                      Grid_es_energy:           -1.236504
##########           Internal_energy_repulsive:           12.511920

@<TRIPOS>MOLECULE
ZINC000981700465
 50 52 1 0 0
SMALL
USER_CHARGES


@<TRIPOS>ATOM
      1 C1         -0.8954    0.9223   45.4186 C.3     1  ZINC000981700465   -0.1500
      2 C2         -0.6174    2.2503   44.7114 C.3     1  ZINC000981700465   -0.1100
      3 C3         -0.1838    3.2956   45.7411 C.3     1  ZINC000981700465   -0.0500
      4 C4          0.1706    4.5790   45.0354 C.2     1  ZINC000981700465    0.1400
      5 N5          0.3704    4.7195   43.7539 N.2     1  ZINC000981700465   -0.2900
      6 N6          0.6773    6.0583   43.4871 N.pl3   1  ZINC000981700465   -0.4600
      7 C7          0.6602    6.7381   44.6447 C.2     1  ZINC000981700465    0.1000
      8 C8          0.3387    5.8426   45.6449 C.2     1  ZINC000981700465   -0.2900
      9 C9          0.2056    6.1458   47.0816 C.2     1  ZINC000981700465    0.5900
     10 O10         0.3561    7.2850   47.4791 O.2     1  ZINC000981700465   -0.5300
     11 N11        -0.0829    5.1600   47.9543 N.am    1  ZINC000981700465   -0.7300
     12 C12        -0.2133    5.4609   49.3821 C.3     1  ZINC000981700465    0.1300
     13 C13         0.1421    4.2175   50.1999 C.3     1  ZINC000981700465   -0.1100
     14 H14         1.1870    3.9476   50.0473 H       1  ZINC000981700465    0.0900
     15 C15        -0.1419    4.4581   51.7034 C.3     1  ZINC000981700465   -0.1200
     16 C16        -0.3237    3.0208   52.2512 C.3     1  ZINC000981700465   -0.1300
     17 C17        -1.0788    2.2805   51.1280 C.3     1  ZINC000981700465    0.1400
     18 H18        -0.7206    1.2539   51.0509 H       1  ZINC000981700465    0.1000
     19 N19        -2.5183    2.2904   51.4001 N.am    1  ZINC000981700465   -0.7100
     20 C20        -3.3387    1.4673   50.7174 C.2     1  ZINC000981700465    0.5600
     21 O21        -2.8846    0.7182   49.8752 O.2     1  ZINC000981700465   -0.5200
     22 C22        -4.7940    1.4759   50.9938 C.ar    1  ZINC000981700465   -0.1400
     23 C23        -5.6046    0.3888   50.6428 C.ar    1  ZINC000981700465   -0.0600
     24 C24        -6.9567    0.4699   50.9339 C.ar    1  ZINC000981700465    0.0400
     25 N25        -7.4405    1.5462   51.5227 N.ar    1  ZINC000981700465   -0.2200
     26 N26        -6.7037    2.5451   51.8466 N.ar    1  ZINC000981700465   -0.2400
     27 C27        -5.4048    2.5667   51.6190 C.ar    1  ZINC000981700465    0.0700
     28 C28        -0.7804    3.0404   49.8212 C.3     1  ZINC000981700465   -0.1200
     29 H29        -1.6895    1.0608   46.1524 H       1  ZINC000981700465    0.0600
     30 H30        -1.2043    0.1777   44.6851 H       1  ZINC000981700465    0.0600
     31 H31         0.0095    0.5825   45.9224 H       1  ZINC000981700465    0.0500
     32 H32         0.1768    2.1119   43.9777 H       1  ZINC000981700465    0.0600
     33 H33        -1.5223    2.5901   44.2076 H       1  ZINC000981700465    0.0600
     34 H34        -1.0005    3.4784   46.4393 H       1  ZINC000981700465    0.1000
     35 H35         0.6856    2.9291   46.2868 H       1  ZINC000981700465    0.0800
     36 H36         0.8699    6.4323   42.6131 H       1  ZINC000981700465    0.4500
     37 H37         0.8573    7.7925   44.7699 H       1  ZINC000981700465    0.1800
     38 H38        -0.2042    4.2515   47.6370 H       1  ZINC000981700465    0.4000
     39 H39         0.4627    6.2743   49.6453 H       1  ZINC000981700465    0.0700
     40 H40        -1.2397    5.7570   49.5988 H       1  ZINC000981700465    0.0700
     41 H41         0.7047    4.9499   52.1824 H       1  ZINC000981700465    0.0700
     42 H42        -1.0538    5.0403   51.8359 H       1  ZINC000981700465    0.0700
     43 H43         0.6456    2.5554   52.4302 H       1  ZINC000981700465    0.0800
     44 H44        -0.9167    3.0333   53.1656 H       1  ZINC000981700465    0.0700
     45 H45        -2.8809    2.8891   52.0715 H       1  ZINC000981700465    0.4000
     46 H46        -5.1892   -0.4839   50.1608 H       1  ZINC000981700465    0.1700
     47 H47        -7.6143   -0.3480   50.6786 H       1  ZINC000981700465    0.1800
     48 H48        -4.8174    3.4261   51.9066 H       1  ZINC000981700465    0.1700
     49 H49        -1.7070    3.4183   49.3892 H       1  ZINC000981700465    0.0800
     50 H50        -0.2789    2.3815   49.1123 H       1  ZINC000981700465    0.0800
@<TRIPOS>BOND
     1     1     2    1
     2     1    29    1
     3     1    30    1
     4     1    31    1
     5     2     3    1
     6     2    32    1
     7     2    33    1
     8     3     4    1
     9     3    34    1
    10     3    35    1
    11     4     8    1
    12     4     5    2
    13     5     6    1
    14     6     7    1
    15     6    36    1
    16     7     8    2
    17     7    37    1
    18     8     9    1
    19     9    10    2
    20     9    11   am
    21    11    12    1
    22    11    38    1
    23    12    13    1
    24    12    39    1
    25    12    40    1
    26    13    14    1
    27    13    28    1
    28    13    15    1
    29    15    16    1
    30    15    41    1
    31    15    42    1
    32    16    17    1
    33    16    43    1
    34    16    44    1
    35    17    18    1
    36    17    19    1
    37    17    28    1
    38    19    20   am
    39    19    45    1
    40    20    21    2
    41    20    22    1
    42    22    27   ar
    43    22    23   ar
    44    23    24   ar
    45    23    46    1
    46    24    25   ar
    47    24    47    1
    48    25    26   ar
    49    26    27   ar
    50    27    48    1
    51    28    49    1
    52    28    50    1
@<TRIPOS>SUBSTRUCTURE
     1 ZINC000981700465        1 TEMP              0 ****  ****    0 ROOT


##########                                Name:    ZINC001169875900
##########                DOCK_Rotatable_Bonds:                   9
##########                         Heavy_Atoms:                  24
##########                    Molecular_Weight:             329.399
##########                DOCK_Rotatable_Bonds:                   9
##########                       Formal_Charge:          -0.0500002
##########                     HBond_Acceptors:                   6
##########                        HBond_Donors:                   1
##########                         Heavy_Atoms:                  24
##########                          Grid_Score:          -33.552727
##########                     Grid_vdw_energy:          -33.279812
##########                      Grid_es_energy:           -0.272916
##########           Internal_energy_repulsive:            6.956606

@<TRIPOS>MOLECULE
ZINC001169875900
 47 48 1 0 0
SMALL
USER_CHARGES


@<TRIPOS>ATOM
      1 C1          0.1054    0.9100   47.9511 C.3     1  ZINC001169875900   -0.1500
      2 C2         -0.3589    1.3732   49.3335 C.3     1  ZINC001169875900   -0.1300
      3 C3         -1.8559    1.0973   49.4877 C.3     1  ZINC001169875900    0.0700
      4 O4         -2.3235    1.6751   50.7081 O.3     1  ZINC001169875900   -0.3100
      5 C5         -3.6323    1.4878   51.0170 C.ar    1  ZINC001169875900    0.2700
      6 N6         -4.2389    0.3745   50.6427 N.ar    1  ZINC001169875900   -0.5000
      7 C7         -5.5108    0.1519   50.9152 C.ar    1  ZINC001169875900    0.0600
      8 C8         -6.2593    1.0855   51.6160 C.ar    1  ZINC001169875900    0.1400
      9 N9         -7.6082    0.8430   51.9012 N.pl3   1  ZINC001169875900   -0.7400
     10 C10        -8.3304    1.7204   52.8258 C.3     1  ZINC001169875900    0.1800
     11 C11        -9.6176    1.0580   53.2447 C.ar    1  ZINC001169875900    0.1000
     12 C12       -10.7158    1.1036   52.4006 C.ar    1  ZINC001169875900   -0.1200
     13 C13       -11.8980    0.4931   52.7898 C.ar    1  ZINC001169875900   -0.0800
     14 C14       -11.9385   -0.1458   54.0190 C.ar    1  ZINC001169875900   -0.1000
     15 C15       -10.7958   -0.1521   54.8165 C.ar    1  ZINC001169875900    0.0900
     16 C16       -10.8226   -0.8302   56.1325 C.2     1  ZINC001169875900    0.5200
     17 O17       -11.8413   -1.3669   56.5183 O.2     1  ZINC001169875900   -0.5000
     18 O18        -9.7173   -0.8519   56.9015 O.3     1  ZINC001169875900   -0.3300
     19 C19        -9.8396   -1.4593   58.2146 C.3     1  ZINC001169875900    0.0600
     20 C20        -8.5108   -1.3303   58.9621 C.3     1  ZINC001169875900   -0.1500
     21 N21        -9.6818    0.4403   54.4037 N.ar    1  ZINC001169875900   -0.4200
     22 C22        -5.6514    2.2687   52.0321 C.ar    1  ZINC001169875900   -0.1200
     23 C23        -4.3164    2.4657   51.7274 C.ar    1  ZINC001169875900   -0.1000
     24 C24        -3.6147    3.7287   52.1556 C.3     1  ZINC001169875900   -0.1000
     25 H25        -0.4451    1.4523   47.1824 H       1  ZINC001169875900    0.0600
     26 H26         1.1718    1.1065   47.8413 H       1  ZINC001169875900    0.0600
     27 H27        -0.0799   -0.1588   47.8449 H       1  ZINC001169875900    0.0600
     28 H28        -0.1736    2.4421   49.4397 H       1  ZINC001169875900    0.0700
     29 H29         0.1916    0.8308   50.1022 H       1  ZINC001169875900    0.0700
     30 H30        -2.0270    0.0209   49.5063 H       1  ZINC001169875900    0.0600
     31 H31        -2.3946    1.5363   48.6479 H       1  ZINC001169875900    0.0600
     32 H32        -5.9739   -0.7675   50.5886 H       1  ZINC001169875900    0.1500
     33 H33        -8.0645    0.0942   51.4868 H       1  ZINC001169875900    0.4000
     34 H34        -7.7146    1.9068   53.7057 H       1  ZINC001169875900    0.0800
     35 H35        -8.5526    2.6658   52.3309 H       1  ZINC001169875900    0.0800
     36 H36       -10.6513    1.6101   51.4489 H       1  ZINC001169875900    0.1500
     37 H37       -12.7674    0.5145   52.1495 H       1  ZINC001169875900    0.1500
     38 H38       -12.8430   -0.6315   54.3542 H       1  ZINC001169875900    0.1500
     39 H39       -10.6237   -0.9529   58.7775 H       1  ZINC001169875900    0.0700
     40 H40       -10.0940   -2.5134   58.1051 H       1  ZINC001169875900    0.0700
     41 H41        -7.7267   -1.8367   58.3991 H       1  ZINC001169875900    0.0700
     42 H42        -8.2564   -0.2761   59.0716 H       1  ZINC001169875900    0.0700
     43 H43        -8.6027   -1.7863   59.9478 H       1  ZINC001169875900    0.0800
     44 H44        -6.2094    3.0142   52.5792 H       1  ZINC001169875900    0.1400
     45 H45        -3.1773    3.5843   53.1435 H       1  ZINC001169875900    0.0700
     46 H46        -4.3322    4.5485   52.1923 H       1  ZINC001169875900    0.0700
     47 H47        -2.8270    3.9670   51.4408 H       1  ZINC001169875900    0.0700
@<TRIPOS>BOND
     1     1     2    1
     2     1    25    1
     3     1    26    1
     4     1    27    1
     5     2     3    1
     6     2    28    1
     7     2    29    1
     8     3     4    1
     9     3    30    1
    10     3    31    1
    11     4     5    1
    12     5    23   ar
    13     5     6   ar
    14     6     7   ar
    15     7     8   ar
    16     7    32    1
    17     8     9    1
    18     8    22   ar
    19     9    10    1
    20     9    33    1
    21    10    11    1
    22    10    34    1
    23    10    35    1
    24    11    21   ar
    25    11    12   ar
    26    12    13   ar
    27    12    36    1
    28    13    14   ar
    29    13    37    1
    30    14    15   ar
    31    14    38    1
    32    15    16    1
    33    15    21   ar
    34    16    17    2
    35    16    18    1
    36    18    19    1
    37    19    20    1
    38    19    39    1
    39    19    40    1
    40    20    41    1
    41    20    42    1
    42    20    43    1
    43    22    23   ar
    44    22    44    1
    45    23    24    1
    46    24    45    1
    47    24    46    1
    48    24    47    1
@<TRIPOS>SUBSTRUCTURE
     1 ZINC001169875900        1 TEMP              0 ****  ****    0 ROOT


##########                                Name:    ZINC000991934963
##########                DOCK_Rotatable_Bonds:                   8
##########                         Heavy_Atoms:                  27
##########                    Molecular_Weight:             370.495
##########                DOCK_Rotatable_Bonds:                   8
##########                       Formal_Charge:          -0.0499997
##########                     HBond_Acceptors:                   6
##########                        HBond_Donors:                   1
##########                         Heavy_Atoms:                  27
##########                          Grid_Score:          -33.528439
##########                     Grid_vdw_energy:          -32.944248
##########                      Grid_es_energy:           -0.584191
##########           Internal_energy_repulsive:           14.881502

@<TRIPOS>MOLECULE
ZINC000991934963
 57 61 1 0 0
SMALL
USER_CHARGES


@<TRIPOS>ATOM
      1 C1         -0.8401    1.3455   45.9583 C.3     1  ZINC000991934963    0.0400
      2 O2         -1.5579    2.0620   46.9651 O.3     1  ZINC000991934963   -0.2900
      3 C3         -1.0833    1.9847   48.2314 C.ar    1  ZINC000991934963    0.5000
      4 N4          0.0600    1.3575   48.4549 N.ar    1  ZINC000991934963   -0.5700
      5 C5          0.5522    1.2635   49.6795 C.ar    1  ZINC000991934963    0.1900
      6 C6         -0.1453    1.8319   50.7333 C.ar    1  ZINC000991934963   -0.2700
      7 C7         -1.3397    2.4813   50.4628 C.ar    1  ZINC000991934963    0.2200
      8 C8         -2.1330    3.1145   51.5767 C.3     1  ZINC000991934963    0.1000
      9 N9         -3.4847    3.4312   51.0964 N.3     1  ZINC000991934963   -0.4900
     10 C10        -4.1529    4.4273   51.9926 C.3     1  ZINC000991934963    0.0400
     11 C11        -5.5354    3.8161   52.3824 C.3     1  ZINC000991934963   -0.1400
     12 C12        -5.7754    2.8549   51.2201 C.3     1  ZINC000991934963    0.1700
     13 N13        -6.2091    3.5478   50.0044 N.am    1  ZINC000991934963   -0.7000
     14 C14        -7.4525    4.0625   49.9293 C.2     1  ZINC000991934963    0.5200
     15 O15        -8.2128    3.9507   50.8676 O.2     1  ZINC000991934963   -0.5300
     16 C16        -7.8980    4.7769   48.6794 C.3     1  ZINC000991934963   -0.1100
     17 C17        -7.5387    6.2604   48.7842 C.3     1  ZINC000991934963   -0.1300
     18 H18        -6.5286    6.5228   48.4695 H       1  ZINC000991934963    0.1200
     19 C19        -8.1466    7.0545   49.9421 C.3     1  ZINC000991934963   -0.1700
     20 C20        -8.6495    7.2772   48.5136 C.3     1  ZINC000991934963   -0.1200
     21 H21        -9.6363    6.8893   48.2612 H       1  ZINC000991934963    0.1000
     22 C22        -8.2579    8.5850   47.8226 C.3     1  ZINC000991934963   -0.1200
     23 C23        -7.2844    8.4981   46.6456 C.3     1  ZINC000991934963   -0.1800
     24 C24        -8.7616    8.8081   46.3953 C.3     1  ZINC000991934963   -0.1800
     25 C25        -6.5332    1.5536   51.4604 C.3     1  ZINC000991934963   -0.1200
     26 C26        -5.8856    0.5907   50.4170 C.3     1  ZINC000991934963   -0.1200
     27 C27        -4.4554    1.1504   50.1500 C.3     1  ZINC000991934963   -0.1000
     28 C28        -4.3171    2.2769   51.1175 C.3     1  ZINC000991934963    0.0500
     29 H29        -4.1567    1.8171   52.0927 H       1  ZINC000991934963    0.0400
     30 N30        -1.7717    2.5430   49.2141 N.ar    1  ZINC000991934963   -0.5000
     31 H31        -0.8324    0.2835   46.2038 H       1  ZINC000991934963    0.0600
     32 H32        -1.3248    1.4917   44.9930 H       1  ZINC000991934963    0.1100
     33 H33         0.1843    1.7148   45.9102 H       1  ZINC000991934963    0.0600
     34 H34         1.4858    0.7499   49.8556 H       1  ZINC000991934963    0.1700
     35 H35         0.2329    1.7700   51.7430 H       1  ZINC000991934963    0.1500
     36 H36        -2.1986    2.4215   52.4156 H       1  ZINC000991934963    0.1000
     37 H37        -1.6385    4.0304   51.8999 H       1  ZINC000991934963    0.0600
     38 H38        -3.5504    4.5890   52.8864 H       1  ZINC000991934963    0.0600
     39 H39        -4.2966    5.3691   51.4629 H       1  ZINC000991934963    0.0800
     40 H40        -5.4733    3.2789   53.3287 H       1  ZINC000991934963    0.0800
     41 H41        -6.3069    4.5852   52.4203 H       1  ZINC000991934963    0.0900
     42 H42        -5.6015    3.6362   49.2534 H       1  ZINC000991934963    0.4000
     43 H43        -7.3973    4.3421   47.8144 H       1  ZINC000991934963    0.1000
     44 H44        -8.9769    4.6715   48.5656 H       1  ZINC000991934963    0.0900
     45 H45        -8.8025    6.5200   50.6292 H       1  ZINC000991934963    0.0900
     46 H46        -7.5366    7.8395   50.3890 H       1  ZINC000991934963    0.1000
     47 H47        -8.1854    9.4568   48.4729 H       1  ZINC000991934963    0.1000
     48 H48        -6.5711    9.3129   46.5212 H       1  ZINC000991934963    0.0900
     49 H49        -6.9229    7.5092   46.3634 H       1  ZINC000991934963    0.0900
     50 H50        -9.3719    8.0233   45.9485 H       1  ZINC000991934963    0.0900
     51 H51        -9.0201    9.8268   46.1063 H       1  ZINC000991934963    0.0900
     52 H52        -6.3695    1.1917   52.4754 H       1  ZINC000991934963    0.0800
     53 H53        -7.5971    1.6822   51.2607 H       1  ZINC000991934963    0.0800
     54 H54        -5.8241   -0.4184   50.8244 H       1  ZINC000991934963    0.0700
     55 H55        -6.4669    0.5897   49.4950 H       1  ZINC000991934963    0.0700
     56 H56        -3.7038    0.3855   50.3451 H       1  ZINC000991934963    0.0700
     57 H57        -4.3733    1.5148   49.1260 H       1  ZINC000991934963    0.0700
@<TRIPOS>BOND
     1     1     2    1
     2     1    31    1
     3     1    32    1
     4     1    33    1
     5     2     3    1
     6     3    30   ar
     7     3     4   ar
     8     4     5   ar
     9     5     6   ar
    10     5    34    1
    11     6     7   ar
    12     6    35    1
    13     7     8    1
    14     7    30   ar
    15     8     9    1
    16     8    36    1
    17     8    37    1
    18     9    28    1
    19     9    10    1
    20    10    11    1
    21    10    38    1
    22    10    39    1
    23    11    12    1
    24    11    40    1
    25    11    41    1
    26    12    28    1
    27    12    13    1
    28    12    25    1
    29    13    14   am
    30    13    42    1
    31    14    15    2
    32    14    16    1
    33    16    17    1
    34    16    43    1
    35    16    44    1
    36    17    18    1
    37    17    20    1
    38    17    19    1
    39    19    20    1
    40    19    45    1
    41    19    46    1
    42    20    21    1
    43    20    22    1
    44    22    24    1
    45    22    23    1
    46    22    47    1
    47    23    24    1
    48    23    48    1
    49    23    49    1
    50    24    50    1
    51    24    51    1
    52    25    26    1
    53    25    52    1
    54    25    53    1
    55    26    27    1
    56    26    54    1
    57    26    55    1
    58    27    28    1
    59    27    56    1
    60    27    57    1
    61    28    29    1
@<TRIPOS>SUBSTRUCTURE
     1 ZINC000991934963        1 TEMP              0 ****  ****    0 ROOT


##########                                Name:    ZINC000129637895
##########                DOCK_Rotatable_Bonds:                   7
##########                         Heavy_Atoms:                  26
##########                    Molecular_Weight:             374.464
##########                DOCK_Rotatable_Bonds:                   7
##########                       Formal_Charge:        -5.51343e-07
##########                     HBond_Acceptors:                   8
##########                        HBond_Donors:                   1
##########                         Heavy_Atoms:                  26
##########                          Grid_Score:          -33.520378
##########                     Grid_vdw_energy:          -32.133400
##########                      Grid_es_energy:           -1.386980
##########           Internal_energy_repulsive:           19.119858

@<TRIPOS>MOLECULE
ZINC000129637895
 48 50 1 0 0
SMALL
USER_CHARGES


@<TRIPOS>ATOM
      1 C1         -0.3788    2.6462   44.6876 C.3     1  ZINC000129637895   -0.1500
      2 C2         -0.2373    1.1242   44.6215 C.3     1  ZINC000129637895   -0.0500
      3 C3          1.1738    0.7675   44.2311 C.2     1  ZINC000129637895    0.0300
      4 C4          2.1394    0.5165   45.1334 C.2     1  ZINC000129637895   -0.0200
      5 N5          1.9949    0.5448   46.5198 N.am    1  ZINC000129637895   -0.5900
      6 C6          2.7936    1.3349   47.2645 C.2     1  ZINC000129637895    0.5000
      7 O7          3.6378    2.0230   46.7278 O.2     1  ZINC000129637895   -0.4800
      8 C8          2.6401    1.3639   48.7489 C.2     1  ZINC000129637895    0.5200
      9 O9          3.4032    0.7323   49.4503 O.2     1  ZINC000129637895   -0.5100
     10 N10         1.6542    2.0913   49.3104 N.am    1  ZINC000129637895   -0.5800
     11 C11         0.7150    2.8589   48.4786 C.3     1  ZINC000129637895    0.0800
     12 C12        -0.7138    2.5049   48.9045 C.3     1  ZINC000129637895    0.0400
     13 N13        -0.8550    2.7105   50.3522 N.3     1  ZINC000129637895   -0.4900
     14 C14        -2.1842    2.5560   50.7524 C.ar    1  ZINC000129637895    0.1500
     15 C15        -2.7670    3.4864   51.6039 C.ar    1  ZINC000129637895   -0.2100
     16 C16        -4.0819    3.3335   51.9992 C.ar    1  ZINC000129637895   -0.0500
     17 C17        -4.8204    2.2556   51.5497 C.ar    1  ZINC000129637895   -0.2300
     18 C18        -4.2434    1.3229   50.6988 C.ar    1  ZINC000129637895    0.1500
     19 O19        -4.9714    0.2636   50.2573 O.3     1  ZINC000129637895   -0.3200
     20 C20        -6.3103    0.1488   50.7432 C.3     1  ZINC000129637895    0.0300
     21 C21        -2.9266    1.4755   50.2954 C.ar    1  ZINC000129637895   -0.1700
     22 C22         0.0297    1.8129   51.1067 C.3     1  ZINC000129637895    0.0400
     23 C23         1.4852    2.1337   50.7708 C.3     1  ZINC000129637895    0.1100
     24 S24         3.6189    0.1446   44.2516 S.3     1  ZINC000129637895    0.2400
     25 C25         2.8002    0.3615   42.7667 C.2     1  ZINC000129637895   -0.0300
     26 N26         1.5654    0.6694   42.9766 N.2     1  ZINC000129637895   -0.4500
     27 H27         0.3148    3.0438   45.4286 H       1  ZINC000129637895    0.0600
     28 H28        -0.1526    3.0749   43.7113 H       1  ZINC000129637895    0.0500
     29 H29        -1.3995    2.9043   44.9700 H       1  ZINC000129637895    0.0700
     30 H30        -0.4636    0.6955   45.5978 H       1  ZINC000129637895    0.0900
     31 H31        -0.9309    0.7266   43.8806 H       1  ZINC000129637895    0.0700
     32 H32         1.3197   -0.0039   46.9484 H       1  ZINC000129637895    0.4300
     33 H33         0.8862    3.9257   48.6225 H       1  ZINC000129637895    0.0900
     34 H34         0.8591    2.6003   47.4296 H       1  ZINC000129637895    0.1400
     35 H35        -1.4201    3.1448   48.3756 H       1  ZINC000129637895    0.1000
     36 H36        -0.9171    1.4615   48.6638 H       1  ZINC000129637895    0.0500
     37 H37        -2.1917    4.3293   51.9572 H       1  ZINC000129637895    0.1300
     38 H38        -4.5334    4.0576   52.6611 H       1  ZINC000129637895    0.1300
     39 H39        -5.8479    2.1385   51.8611 H       1  ZINC000129637895    0.1300
     40 H40        -6.2964    0.0622   51.8296 H       1  ZINC000129637895    0.0600
     41 H41        -6.8779    1.0341   50.4566 H       1  ZINC000129637895    0.0600
     42 H42        -6.7779   -0.7373   50.3140 H       1  ZINC000129637895    0.1000
     43 H43        -2.4762    0.7510   49.6331 H       1  ZINC000129637895    0.1300
     44 H44        -0.1374    1.9509   52.1749 H       1  ZINC000129637895    0.1000
     45 H45        -0.1839    0.7790   50.8354 H       1  ZINC000129637895    0.0500
     46 H46         2.1396    1.3979   51.2383 H       1  ZINC000129637895    0.1100
     47 H47         1.7334    3.1312   51.1333 H       1  ZINC000129637895    0.0900
     48 H48         3.2514    0.2519   41.7916 H       1  ZINC000129637895    0.2000
@<TRIPOS>BOND
     1     1     2    1
     2     1    27    1
     3     1    28    1
     4     1    29    1
     5     2     3    1
     6     2    30    1
     7     2    31    1
     8     3    26    1
     9     3     4    2
    10     4     5    1
    11     4    24    1
    12     5     6   am
    13     5    32    1
    14     6     7    2
    15     6     8    1
    16     8     9    2
    17     8    10   am
    18    10    23    1
    19    10    11    1
    20    11    12    1
    21    11    33    1
    22    11    34    1
    23    12    13    1
    24    12    35    1
    25    12    36    1
    26    13    14    1
    27    13    22    1
    28    14    21   ar
    29    14    15   ar
    30    15    16   ar
    31    15    37    1
    32    16    17   ar
    33    16    38    1
    34    17    18   ar
    35    17    39    1
    36    18    19    1
    37    18    21   ar
    38    19    20    1
    39    20    40    1
    40    20    41    1
    41    20    42    1
    42    21    43    1
    43    22    23    1
    44    22    44    1
    45    22    45    1
    46    23    46    1
    47    23    47    1
    48    24    25    1
    49    25    26    2
    50    25    48    1
@<TRIPOS>SUBSTRUCTURE
     1 ZINC000129637895        1 TEMP              0 ****  ****    0 ROOT


##########                                Name:    ZINC000375302598
##########                DOCK_Rotatable_Bonds:                   8
##########                         Heavy_Atoms:                  27
##########                    Molecular_Weight:             368.479
##########                DOCK_Rotatable_Bonds:                   8
##########                       Formal_Charge:               -0.02
##########                     HBond_Acceptors:                   6
##########                        HBond_Donors:                   1
##########                         Heavy_Atoms:                  27
##########                          Grid_Score:          -33.519348
##########                     Grid_vdw_energy:          -32.274635
##########                      Grid_es_energy:           -1.244712
##########           Internal_energy_repulsive:           11.061185

@<TRIPOS>MOLECULE
ZINC000375302598
 55 58 1 0 0
SMALL
USER_CHARGES


@<TRIPOS>ATOM
      1 C1          2.8693    1.2101   41.9872 C.3     1  ZINC000375302598   -0.1500
      2 C2          1.9475    0.0429   42.3463 C.3     1  ZINC000375302598   -0.0300
      3 C3          0.8946    0.5144   43.3159 C.2     1  ZINC000375302598    0.1800
      4 N4          1.0039    1.5068   44.1660 N.2     1  ZINC000375302598   -0.4700
      5 C5         -0.1726    1.5584   44.8156 C.2     1  ZINC000375302598    0.1800
      6 C6         -0.5508    2.5345   45.8998 C.3     1  ZINC000375302598    0.1500
      7 N7         -0.4259    1.8830   47.2105 N.3     1  ZINC000375302598   -0.5300
      8 C8          0.9691    1.8863   47.6691 C.3     1  ZINC000375302598    0.0500
      9 C9          1.0843    1.0755   48.9618 C.3     1  ZINC000375302598   -0.1100
     10 C10         0.1754    1.6927   50.0284 C.3     1  ZINC000375302598   -0.1300
     11 C11        -1.2639    1.7216   49.5066 C.3     1  ZINC000375302598    0.1500
     12 H12        -1.6066    0.7025   49.3277 H       1  ZINC000375302598    0.1000
     13 N13        -2.1309    2.3622   50.4986 N.am    1  ZINC000375302598   -0.7300
     14 C14        -3.4529    2.0996   50.5080 C.2     1  ZINC000375302598    0.5200
     15 O15        -3.9248    1.3341   49.6942 O.2     1  ZINC000375302598   -0.5300
     16 C16        -4.3445    2.7572   51.5295 C.3     1  ZINC000375302598   -0.1100
     17 C17        -5.5790    1.8849   51.7659 C.3     1  ZINC000375302598   -0.1200
     18 H18        -5.4270    1.0202   52.4118 H       1  ZINC000375302598    0.1200
     19 C19        -6.5719    1.7382   50.6110 C.3     1  ZINC000375302598   -0.1700
     20 C20        -6.9373    2.5860   51.8320 C.3     1  ZINC000375302598   -0.1100
     21 H21        -6.9515    3.6688   51.7069 H       1  ZINC000375302598    0.1100
     22 C22        -7.9632    2.0284   52.7846 C.ar    1  ZINC000375302598   -0.0500
     23 C23        -8.9170    1.1373   52.3292 C.ar    1  ZINC000375302598   -0.1200
     24 C24        -9.8580    0.6257   53.2031 C.ar    1  ZINC000375302598   -0.1200
     25 C25        -9.8451    1.0048   54.5323 C.ar    1  ZINC000375302598   -0.1300
     26 C26        -8.8909    1.8951   54.9879 C.ar    1  ZINC000375302598   -0.1200
     27 C27        -7.9471    2.4034   54.1150 C.ar    1  ZINC000375302598   -0.1100
     28 C28        -1.3111    2.5136   48.1980 C.3     1  ZINC000375302598    0.0500
     29 N29        -0.9235    0.6123   44.3364 N.2     1  ZINC000375302598   -0.3800
     30 O30        -0.3312    0.0045   43.4697 O.3     1  ZINC000375302598    0.0800
     31 H31         3.3495    1.5852   42.8909 H       1  ZINC000375302598    0.0600
     32 H32         3.6308    0.8691   41.2859 H       1  ZINC000375302598    0.0800
     33 H33         2.2843    2.0075   41.5289 H       1  ZINC000375302598    0.0600
     34 H34         1.4672   -0.3321   41.4426 H       1  ZINC000375302598    0.1100
     35 H35         2.5325   -0.7544   42.8046 H       1  ZINC000375302598    0.1000
     36 H36         0.1127    3.3983   45.8587 H       1  ZINC000375302598    0.0700
     37 H37        -1.5806    2.8601   45.7524 H       1  ZINC000375302598    0.1100
     38 H38         1.6042    1.4410   46.9032 H       1  ZINC000375302598    0.0800
     39 H39         1.2881    2.9120   47.8539 H       1  ZINC000375302598    0.0400
     40 H40         0.7785    0.0462   48.7743 H       1  ZINC000375302598    0.0700
     41 H41         2.1171    1.0912   49.3104 H       1  ZINC000375302598    0.0700
     42 H42         0.2214    1.0930   50.9375 H       1  ZINC000375302598    0.0700
     43 H43         0.5051    2.7089   50.2442 H       1  ZINC000375302598    0.0600
     44 H44        -1.7537    2.9753   51.1487 H       1  ZINC000375302598    0.4000
     45 H45        -3.7987    2.8756   52.4656 H       1  ZINC000375302598    0.1000
     46 H46        -4.6556    3.7358   51.1641 H       1  ZINC000375302598    0.1000
     47 H47        -6.3456    2.2631   49.6830 H       1  ZINC000375302598    0.1000
     48 H48        -7.0734    0.7771   50.4975 H       1  ZINC000375302598    0.1000
     49 H49        -8.9270    0.8411   51.2907 H       1  ZINC000375302598    0.1200
     50 H50       -10.6036   -0.0699   52.8471 H       1  ZINC000375302598    0.1200
     51 H51       -10.5808    0.6057   55.2149 H       1  ZINC000375302598    0.1200
     52 H52        -8.8810    2.1916   56.0263 H       1  ZINC000375302598    0.1200
     53 H53        -7.2016    3.0990   54.4710 H       1  ZINC000375302598    0.1200
     54 H54        -0.9814    3.5364   48.3804 H       1  ZINC000375302598    0.0400
     55 H55        -2.3320    2.5240   47.8164 H       1  ZINC000375302598    0.0900
@<TRIPOS>BOND
     1     1     2    1
     2     1    31    1
     3     1    32    1
     4     1    33    1
     5     2     3    1
     6     2    34    1
     7     2    35    1
     8     3    30    1
     9     3     4    2
    10     4     5    1
    11     5     6    1
    12     5    29    2
    13     6     7    1
    14     6    36    1
    15     6    37    1
    16     7    28    1
    17     7     8    1
    18     8     9    1
    19     8    38    1
    20     8    39    1
    21     9    10    1
    22     9    40    1
    23     9    41    1
    24    10    11    1
    25    10    42    1
    26    10    43    1
    27    11    12    1
    28    11    13    1
    29    11    28    1
    30    13    14   am
    31    13    44    1
    32    14    15    2
    33    14    16    1
    34    16    17    1
    35    16    45    1
    36    16    46    1
    37    17    18    1
    38    17    20    1
    39    17    19    1
    40    19    20    1
    41    19    47    1
    42    19    48    1
    43    20    21    1
    44    20    22    1
    45    22    27   ar
    46    22    23   ar
    47    23    24   ar
    48    23    49    1
    49    24    25   ar
    50    24    50    1
    51    25    26   ar
    52    25    51    1
    53    26    27   ar
    54    26    52    1
    55    27    53    1
    56    28    54    1
    57    28    55    1
    58    29    30    1
@<TRIPOS>SUBSTRUCTURE
     1 ZINC000375302598        1 TEMP              0 ****  ****    0 ROOT


##########                                Name:    ZINC000859608860
##########                DOCK_Rotatable_Bonds:                   8
##########                         Heavy_Atoms:                  24
##########                    Molecular_Weight:             394.268
##########                DOCK_Rotatable_Bonds:                   8
##########                       Formal_Charge:          -0.0200003
##########                     HBond_Acceptors:                   6
##########                        HBond_Donors:                   1
##########                         Heavy_Atoms:                  24
##########                          Grid_Score:          -33.517315
##########                     Grid_vdw_energy:          -32.557590
##########                      Grid_es_energy:           -0.959723
##########           Internal_energy_repulsive:            7.641530

@<TRIPOS>MOLECULE
ZINC000859608860
 44 45 1 0 0
SMALL
USER_CHARGES


@<TRIPOS>ATOM
      1 C1          0.8471    3.0524   45.6041 C.3     1  ZINC000859608860   -0.1400
      2 C2          0.3950    1.6114   45.3586 C.3     1  ZINC000859608860   -0.0800
      3 C3         -1.1198    1.5814   45.1458 C.3     1  ZINC000859608860   -0.1400
      4 C4          1.0958    1.0622   44.1144 C.3     1  ZINC000859608860   -0.1400
      5 C5          0.7570    0.7499   46.5701 C.3     1  ZINC000859608860    0.1300
      6 N6          0.0022    1.2089   47.7387 N.am    1  ZINC000859608860   -0.7300
      7 C7          0.5240    1.0730   48.9739 C.2     1  ZINC000859608860    0.5100
      8 O8          1.6178    0.5694   49.1181 O.2     1  ZINC000859608860   -0.5100
      9 C9         -0.2517    1.5467   50.1759 C.3     1  ZINC000859608860    0.0500
     10 O10        -1.6738    1.3951   49.9248 O.3     1  ZINC000859608860   -0.3100
     11 C11        -2.5149    1.8454   50.8771 C.2     1  ZINC000859608860    0.5600
     12 O12        -2.0984    2.5615   51.7665 O.2     1  ZINC000859608860   -0.5100
     13 C13        -3.9372    1.4699   50.8399 C.2     1  ZINC000859608860   -0.0400
     14 C14        -4.9217    1.9588   51.6496 C.2     1  ZINC000859608860    0.0500
     15 N15        -6.0778    1.3462   51.2757 N.pl3   1  ZINC000859608860   -0.4100
     16 C16        -7.3442    1.5498   51.8425 C.ar    1  ZINC000859608860    0.1400
     17 C17        -8.2903    0.5342   51.8136 C.ar    1  ZINC000859608860   -0.1200
     18 C18        -9.5367    0.7370   52.3729 C.ar    1  ZINC000859608860   -0.0600
     19 C19        -9.8429    1.9512   52.9616 C.ar    1  ZINC000859608860   -0.1000
     20 Br20      -11.5504    2.2254   53.7264 Br      1  ZINC000859608860   -0.0300
     21 C21        -8.9016    2.9647   52.9921 C.ar    1  ZINC000859608860   -0.0600
     22 C22        -7.6521    2.7653   52.4384 C.ar    1  ZINC000859608860   -0.1200
     23 C23        -5.7820    0.4999   50.2514 C.2     1  ZINC000859608860    0.2000
     24 N24        -4.5095    0.5788   49.9900 N.2     1  ZINC000859608860   -0.4300
     25 H25         0.3478    3.4438   46.4905 H       1  ZINC000859608860    0.0500
     26 H26         1.9262    3.0738   45.7557 H       1  ZINC000859608860    0.0600
     27 H27         0.5892    3.6662   44.7411 H       1  ZINC000859608860    0.0600
     28 H28        -1.3777    2.1951   44.2827 H       1  ZINC000859608860    0.0600
     29 H29        -1.4418    0.5548   44.9708 H       1  ZINC000859608860    0.0600
     30 H30        -1.6191    1.9727   46.0322 H       1  ZINC000859608860    0.0500
     31 H31         2.1750    1.0835   44.2661 H       1  ZINC000859608860    0.0600
     32 H32         0.7738    0.0356   43.9395 H       1  ZINC000859608860    0.0600
     33 H33         0.8379    1.6759   43.2514 H       1  ZINC000859608860    0.0600
     34 H34         0.5086   -0.2910   46.3629 H       1  ZINC000859608860    0.0700
     35 H35         1.8249    0.8357   46.7707 H       1  ZINC000859608860    0.0700
     36 H36        -0.8732    1.6105   47.6236 H       1  ZINC000859608860    0.4000
     37 H37         0.0288    0.9536   51.0463 H       1  ZINC000859608860    0.1000
     38 H38        -0.0258    2.5965   50.3635 H       1  ZINC000859608860    0.1000
     39 H39        -4.8054    2.6903   52.4357 H       1  ZINC000859608860    0.2000
     40 H40        -8.0520   -0.4135   51.3538 H       1  ZINC000859608860    0.1400
     41 H41       -10.2731   -0.0527   52.3503 H       1  ZINC000859608860    0.1500
     42 H42        -9.1429    3.9116   53.4522 H       1  ZINC000859608860    0.1500
     43 H43        -6.9177    3.5568   52.4624 H       1  ZINC000859608860    0.1500
     44 H44        -6.4899   -0.1323   49.7360 H       1  ZINC000859608860    0.2200
@<TRIPOS>BOND
     1     1     2    1
     2     1    25    1
     3     1    26    1
     4     1    27    1
     5     2     3    1
     6     2     4    1
     7     2     5    1
     8     3    28    1
     9     3    29    1
    10     3    30    1
    11     4    31    1
    12     4    32    1
    13     4    33    1
    14     5     6    1
    15     5    34    1
    16     5    35    1
    17     6     7   am
    18     6    36    1
    19     7     8    2
    20     7     9    1
    21     9    10    1
    22     9    37    1
    23     9    38    1
    24    10    11    1
    25    11    12    2
    26    11    13    1
    27    13    24    1
    28    13    14    2
    29    14    15    1
    30    14    39    1
    31    15    16    1
    32    15    23    1
    33    16    22   ar
    34    16    17   ar
    35    17    18   ar
    36    17    40    1
    37    18    19   ar
    38    18    41    1
    39    19    20    1
    40    19    21   ar
    41    21    22   ar
    42    21    42    1
    43    22    43    1
    44    23    24    2
    45    23    44    1
@<TRIPOS>SUBSTRUCTURE
     1 ZINC000859608860        1 TEMP              0 ****  ****    0 ROOT


##########                                Name:    ZINC000643274279
##########                DOCK_Rotatable_Bonds:                   6
##########                         Heavy_Atoms:                  29
##########                    Molecular_Weight:             392.454
##########                DOCK_Rotatable_Bonds:                   6
##########                       Formal_Charge:         -0.00999939
##########                     HBond_Acceptors:                   6
##########                        HBond_Donors:                   2
##########                         Heavy_Atoms:                  29
##########                          Grid_Score:          -33.514343
##########                     Grid_vdw_energy:          -31.860840
##########                      Grid_es_energy:           -1.653503
##########           Internal_energy_repulsive:            6.687519

@<TRIPOS>MOLECULE
ZINC000643274279
 53 56 1 0 0
SMALL
USER_CHARGES


@<TRIPOS>ATOM
      1 O1         -2.4223    4.0499   50.7569 O.2     1  ZINC000643274279   -0.4900
      2 C2         -2.8691    3.3884   51.6713 C.2     1  ZINC000643274279    0.5100
      3 N3         -2.0321    2.7765   52.5323 N.am    1  ZINC000643274279   -0.6400
      4 C4         -0.6495    2.8989   52.3689 C.ar    1  ZINC000643274279    0.1300
      5 C5          0.0502    3.8671   53.0805 C.ar    1  ZINC000643274279   -0.1000
      6 C6          1.4179    4.0036   52.9164 C.ar    1  ZINC000643274279   -0.1000
      7 C7          2.0896    3.1776   52.0425 C.ar    1  ZINC000643274279   -0.0600
      8 C8          3.5775    3.3700   51.8069 C.3     1  ZINC000643274279   -0.0900
      9 C9          4.3343    2.1717   52.3682 C.3     1  ZINC000643274279   -0.1200
     10 C10         4.4428    1.0517   51.3444 C.3     1  ZINC000643274279   -0.1100
     11 C11         3.1442    0.3344   51.0746 C.3     1  ZINC000643274279   -0.1600
     12 C12         2.1452    1.2845   50.4433 C.2     1  ZINC000643274279    0.4100
     13 O13         1.9635    1.3007   49.2446 O.2     1  ZINC000643274279   -0.4400
     14 C14         1.4030    2.1869   51.3409 C.ar    1  ZINC000643274279   -0.1300
     15 C15         0.0228    2.0502   51.5014 C.ar    1  ZINC000643274279   -0.1000
     16 C16        -4.3467    3.2577   51.8458 C.2     1  ZINC000643274279    0.5200
     17 O17        -4.9732    4.1400   52.3953 O.2     1  ZINC000643274279   -0.5000
     18 N18        -4.9842    2.1600   51.3931 N.am    1  ZINC000643274279   -0.5800
     19 C19        -4.3494    1.0178   50.7105 C.3     1  ZINC000643274279    0.0900
     20 C20        -5.3079   -0.1740   50.9570 C.3     1  ZINC000643274279   -0.1400
     21 C21        -6.6939    0.5181   50.8718 C.3     1  ZINC000643274279   -0.1200
     22 C22        -6.4271    1.9003   51.5040 C.3     1  ZINC000643274279    0.1800
     23 H23        -6.7282    1.8932   52.5515 H       1  ZINC000643274279    0.0900
     24 C24        -7.1939    2.9617   50.7578 C.ar    1  ZINC000643274279   -0.1000
     25 C25        -6.7508    3.3922   49.5209 C.ar    1  ZINC000643274279   -0.0900
     26 C26        -7.4518    4.3650   48.8349 C.ar    1  ZINC000643274279   -0.1400
     27 C27        -8.6016    4.9097   49.3880 C.ar    1  ZINC000643274279    0.1100
     28 O28        -9.2933    5.8664   48.7150 O.3     1  ZINC000643274279   -0.5000
     29 C29        -9.0444    4.4757   50.6290 C.ar    1  ZINC000643274279   -0.1400
     30 C30        -8.3425    3.4992   51.3088 C.ar    1  ZINC000643274279   -0.0900
     31 H31        -2.3893    2.2512   53.2653 H       1  ZINC000643274279    0.4200
     32 H32        -0.4762    4.5163   53.7646 H       1  ZINC000643274279    0.1400
     33 H33         1.9570    4.7564   53.4722 H       1  ZINC000643274279    0.1400
     34 H34         3.7690    3.4527   50.7371 H       1  ZINC000643274279    0.0800
     35 H35         3.9109    4.2786   52.3084 H       1  ZINC000643274279    0.0800
     36 H36         5.3364    2.4873   52.6586 H       1  ZINC000643274279    0.0800
     37 H37         3.8101    1.7999   53.2487 H       1  ZINC000643274279    0.0700
     38 H38         4.8074    1.4727   50.4074 H       1  ZINC000643274279    0.0700
     39 H39         5.1726    0.3251   51.7014 H       1  ZINC000643274279    0.0800
     40 H40         3.3263   -0.5006   50.3981 H       1  ZINC000643274279    0.0900
     41 H41         2.7392   -0.0449   52.0129 H       1  ZINC000643274279    0.0900
     42 H42        -0.5172    1.2932   50.9522 H       1  ZINC000643274279    0.1300
     43 H43        -4.2584    1.2169   49.6428 H       1  ZINC000643274279    0.0800
     44 H44        -3.3704    0.8133   51.1440 H       1  ZINC000643274279    0.1000
     45 H45        -5.1999   -0.9295   50.1788 H       1  ZINC000643274279    0.0900
     46 H46        -5.1472   -0.6067   51.9444 H       1  ZINC000643274279    0.0800
     47 H47        -7.0112    0.6193   49.8340 H       1  ZINC000643274279    0.0800
     48 H48        -7.4357   -0.0317   51.4511 H       1  ZINC000643274279    0.0900
     49 H49        -5.8556    2.9679   49.0908 H       1  ZINC000643274279    0.1200
     50 H50        -7.1049    4.7015   47.8691 H       1  ZINC000643274279    0.1300
     51 H51        -8.9011    6.1113   47.8657 H       1  ZINC000643274279    0.3900
     52 H52        -9.9391    4.8985   51.0618 H       1  ZINC000643274279    0.1300
     53 H53        -8.6869    3.1608   52.2748 H       1  ZINC000643274279    0.1300
@<TRIPOS>BOND
     1     1     2    2
     2     2     3   am
     3     2    16    1
     4     3     4    1
     5     3    31    1
     6     4    15   ar
     7     4     5   ar
     8     5     6   ar
     9     5    32    1
    10     6     7   ar
    11     6    33    1
    12     7    14   ar
    13     7     8    1
    14     8     9    1
    15     8    34    1
    16     8    35    1
    17     9    10    1
    18     9    36    1
    19     9    37    1
    20    10    11    1
    21    10    38    1
    22    10    39    1
    23    11    12    1
    24    11    40    1
    25    11    41    1
    26    12    13    2
    27    12    14    1
    28    14    15   ar
    29    15    42    1
    30    16    17    2
    31    16    18   am
    32    18    22    1
    33    18    19    1
    34    19    20    1
    35    19    43    1
    36    19    44    1
    37    20    21    1
    38    20    45    1
    39    20    46    1
    40    21    22    1
    41    21    47    1
    42    21    48    1
    43    22    23    1
    44    22    24    1
    45    24    30   ar
    46    24    25   ar
    47    25    26   ar
    48    25    49    1
    49    26    27   ar
    50    26    50    1
    51    27    28    1
    52    27    29   ar
    53    28    51    1
    54    29    30   ar
    55    29    52    1
    56    30    53    1
@<TRIPOS>SUBSTRUCTURE
     1 ZINC000643274279        1 TEMP              0 ****  ****    0 ROOT


##########                                Name:    ZINC000548281822
##########                DOCK_Rotatable_Bonds:                   6
##########                         Heavy_Atoms:                  24
##########                    Molecular_Weight:             332.406
##########                DOCK_Rotatable_Bonds:                   6
##########                       Formal_Charge:        -5.58794e-08
##########                     HBond_Acceptors:                   8
##########                        HBond_Donors:                   2
##########                         Heavy_Atoms:                  24
##########                          Grid_Score:          -33.492039
##########                     Grid_vdw_energy:          -32.643513
##########                      Grid_es_energy:           -0.848524
##########           Internal_energy_repulsive:            6.380365

@<TRIPOS>MOLECULE
ZINC000548281822
 48 50 1 0 0
SMALL
USER_CHARGES


@<TRIPOS>ATOM
      1 C1          0.3258    0.3366   47.0778 C.3     1  ZINC000548281822   -0.1700
      2 C2          0.3959    1.1655   48.3620 C.3     1  ZINC000548281822    0.2600
      3 H3          0.1717    2.2076   48.1344 H       1  ZINC000548281822    0.1400
      4 N4         -0.5814    0.6550   49.3266 N.am    1  ZINC000548281822   -0.7400
      5 C5         -1.8245    1.1742   49.3653 C.2     1  ZINC000548281822    0.7100
      6 O6         -2.1345    2.0673   48.6006 O.2     1  ZINC000548281822   -0.5700
      7 N7         -2.7241    0.7036   50.2517 N.am    1  ZINC000548281822   -0.7400
      8 C8         -4.0759    1.2667   50.2925 C.3     1  ZINC000548281822    0.1600
      9 H9         -4.3979    1.5142   49.2810 H       1  ZINC000548281822    0.1000
     10 C10        -5.0388    0.2418   50.8993 C.3     1  ZINC000548281822   -0.1400
     11 C11        -6.4811    0.7314   50.7289 C.3     1  ZINC000548281822    0.1100
     12 N12        -6.5710    2.1116   51.2109 N.pl3   1  ZINC000548281822   -0.4600
     13 C13        -7.6946    2.8095   51.5404 C.2     1  ZINC000548281822   -0.0500
     14 C14        -7.2889    4.0349   51.9307 C.2     1  ZINC000548281822   -0.0300
     15 N15        -5.9497    4.0790   51.8397 N.2     1  ZINC000548281822   -0.4900
     16 C16        -5.5120    2.9321   51.4092 C.2     1  ZINC000548281822    0.2100
     17 C17        -4.0767    2.5351   51.1552 C.3     1  ZINC000548281822   -0.0500
     18 C18         1.7803    1.0663   48.9490 C.2     1  ZINC000548281822    0.1700
     19 N19         2.0885    1.0457   50.2234 N.2     1  ZINC000548281822   -0.4600
     20 C20         3.4292    0.9489   50.2701 C.2     1  ZINC000548281822    0.1900
     21 C21         4.2763    0.8889   51.5150 C.3     1  ZINC000548281822    0.0200
     22 C22         5.6027    1.6092   51.2645 C.3     1  ZINC000548281822   -0.1400
     23 C23         3.5364    1.5694   52.6686 C.3     1  ZINC000548281822   -0.1400
     24 C24         4.5497   -0.5725   51.8760 C.3     1  ZINC000548281822   -0.1400
     25 N25         3.8599    0.9162   49.0445 N.2     1  ZINC000548281822   -0.3700
     26 O26         2.9280    0.9767   48.2703 O.3     1  ZINC000548281822    0.0800
     27 H27         0.5501   -0.7056   47.3054 H       1  ZINC000548281822    0.0700
     28 H28        -0.6754    0.4084   46.6532 H       1  ZINC000548281822    0.0900
     29 H29         1.0530    0.7163   46.3601 H       1  ZINC000548281822    0.0800
     30 H30        -0.3337   -0.0566   49.9375 H       1  ZINC000548281822    0.4000
     31 H31        -2.4765   -0.0081   50.8626 H       1  ZINC000548281822    0.4000
     32 H32        -4.9177   -0.7152   50.3918 H       1  ZINC000548281822    0.1000
     33 H33        -4.8192    0.1207   51.9601 H       1  ZINC000548281822    0.0800
     34 H34        -6.7576    0.6935   49.6753 H       1  ZINC000548281822    0.0900
     35 H35        -7.1528    0.0977   51.3081 H       1  ZINC000548281822    0.1000
     36 H36        -8.7123    2.4508   51.4967 H       1  ZINC000548281822    0.1800
     37 H37        -7.9291    4.8404   52.2586 H       1  ZINC000548281822    0.1700
     38 H38        -3.5774    2.3349   52.1032 H       1  ZINC000548281822    0.0900
     39 H39        -3.5606    3.3383   50.6295 H       1  ZINC000548281822    0.1000
     40 H40         5.4079    2.6503   51.0073 H       1  ZINC000548281822    0.0600
     41 H41         6.2155    1.5658   52.1649 H       1  ZINC000548281822    0.0700
     42 H42         6.1298    1.1244   50.4426 H       1  ZINC000548281822    0.0700
     43 H43         2.5915    1.0563   52.8471 H       1  ZINC000548281822    0.0600
     44 H44         4.1492    1.5260   53.5690 H       1  ZINC000548281822    0.0700
     45 H45         3.3417    2.6105   52.4114 H       1  ZINC000548281822    0.0600
     46 H46         5.0768   -1.0573   51.0542 H       1  ZINC000548281822    0.0700
     47 H47         5.1624   -0.6158   52.7764 H       1  ZINC000548281822    0.0700
     48 H48         3.6048   -1.0856   52.0545 H       1  ZINC000548281822    0.0600
@<TRIPOS>BOND
     1     1     2    1
     2     1    27    1
     3     1    28    1
     4     1    29    1
     5     2     3    1
     6     2     4    1
     7     2    18    1
     8     4     5   am
     9     4    30    1
    10     5     6    2
    11     5     7   am
    12     7     8    1
    13     7    31    1
    14     8     9    1
    15     8    17    1
    16     8    10    1
    17    10    11    1
    18    10    32    1
    19    10    33    1
    20    11    12    1
    21    11    34    1
    22    11    35    1
    23    12    16    1
    24    12    13    1
    25    13    14    2
    26    13    36    1
    27    14    15    1
    28    14    37    1
    29    15    16    2
    30    16    17    1
    31    17    38    1
    32    17    39    1
    33    18    26    1
    34    18    19    2
    35    19    20    1
    36    20    21    1
    37    20    25    2
    38    21    22    1
    39    21    23    1
    40    21    24    1
    41    22    40    1
    42    22    41    1
    43    22    42    1
    44    23    43    1
    45    23    44    1
    46    23    45    1
    47    24    46    1
    48    24    47    1
    49    24    48    1
    50    25    26    1
@<TRIPOS>SUBSTRUCTURE
     1 ZINC000548281822        1 TEMP              0 ****  ****    0 ROOT


##########                                Name:    ZINC000487792031
##########                DOCK_Rotatable_Bonds:                  12
##########                         Heavy_Atoms:                  29
##########                    Molecular_Weight:             414.569
##########                DOCK_Rotatable_Bonds:                  12
##########                       Formal_Charge:          -0.0100001
##########                     HBond_Acceptors:                   6
##########                        HBond_Donors:                   1
##########                         Heavy_Atoms:                  29
##########                          Grid_Score:          -33.477684
##########                     Grid_vdw_energy:          -33.626747
##########                      Grid_es_energy:            0.149064
##########           Internal_energy_repulsive:           18.247734

@<TRIPOS>MOLECULE
ZINC000487792031
 59 60 1 0 0
SMALL
USER_CHARGES


@<TRIPOS>ATOM
      1 C1         -7.2747    3.7071   56.6766 C.2     1  ZINC000487792031   -0.1900
      2 C2         -7.8712    2.6916   56.1030 C.2     1  ZINC000487792031   -0.1500
      3 C3         -8.1572    2.7231   54.6237 C.3     1  ZINC000487792031   -0.0900
      4 C4         -9.4111    1.8975   54.3290 C.3     1  ZINC000487792031   -0.0900
      5 C5         -9.7479    1.9957   52.8397 C.3     1  ZINC000487792031   -0.0700
      6 H6         -9.6039    3.0219   52.5015 H       1  ZINC000487792031    0.1100
      7 C7         -8.8434    1.0777   52.0586 C.2     1  ZINC000487792031    0.5200
      8 O8         -9.1719   -0.0728   51.8603 O.2     1  ZINC000487792031   -0.5300
      9 N9         -7.6692    1.5351   51.5805 N.am    1  ZINC000487792031   -0.7200
     10 C10        -6.7891    0.6423   50.8227 C.3     1  ZINC000487792031    0.1500
     11 C11        -5.3910    1.2048   50.8127 C.ar    1  ZINC000487792031   -0.0500
     12 C12        -5.1839    2.5466   51.0727 C.ar    1  ZINC000487792031   -0.1200
     13 C13        -3.9015    3.0625   51.0635 C.ar    1  ZINC000487792031   -0.0200
     14 C14        -2.8260    2.2365   50.7949 C.ar    1  ZINC000487792031   -0.6700
     15 S15        -1.1915    2.8942   50.7826 S.o2    1  ZINC000487792031    2.6900
     16 O16        -1.3209    4.2863   50.5280 O.2     1  ZINC000487792031   -0.9500
     17 O17        -0.5401    2.3718   51.9324 O.2     1  ZINC000487792031   -0.9500
     18 N18        -0.4134    2.2493   49.4707 N.am    1  ZINC000487792031   -1.0000
     19 C19        -0.9363    2.4812   48.1220 C.3     1  ZINC000487792031    0.1200
     20 C20        -0.2241    3.6835   47.4988 C.3     1  ZINC000487792031   -0.1800
     21 C21         0.7977    1.4469   49.6590 C.3     1  ZINC000487792031    0.1100
     22 C22         1.9626    2.3632   50.0391 C.3     1  ZINC000487792031   -0.1800
     23 C23        -3.0330    0.8944   50.5361 C.ar    1  ZINC000487792031   -0.0200
     24 C24        -4.3152    0.3777   50.5491 C.ar    1  ZINC000487792031   -0.1200
     25 C25       -11.1832    1.5915   52.6216 C.ar    1  ZINC000487792031   -0.0800
     26 C26       -11.7455    0.5936   53.3954 C.ar    1  ZINC000487792031   -0.1100
     27 C27       -13.0622    0.2229   53.1953 C.ar    1  ZINC000487792031   -0.1100
     28 C28       -13.8165    0.8505   52.2216 C.ar    1  ZINC000487792031   -0.1200
     29 C29       -13.2545    1.8491   51.4485 C.ar    1  ZINC000487792031   -0.1200
     30 C30       -11.9391    2.2227   51.6515 C.ar    1  ZINC000487792031   -0.1100
     31 H31        -7.0696    3.6845   57.7368 H       1  ZINC000487792031    0.1000
     32 H32        -6.9840    4.5651   56.0886 H       1  ZINC000487792031    0.1000
     33 H33        -8.1580    1.8317   56.6902 H       1  ZINC000487792031    0.1100
     34 H34        -8.3178    3.7536   54.3066 H       1  ZINC000487792031    0.0700
     35 H35        -7.3101    2.3038   54.0808 H       1  ZINC000487792031    0.0700
     36 H36        -9.2304    0.8555   54.5927 H       1  ZINC000487792031    0.0800
     37 H37       -10.2452    2.2815   54.9162 H       1  ZINC000487792031    0.0700
     38 H38        -7.4069    2.4556   51.7382 H       1  ZINC000487792031    0.4000
     39 H39        -6.7811   -0.3425   51.2899 H       1  ZINC000487792031    0.0800
     40 H40        -7.1533    0.5559   49.7991 H       1  ZINC000487792031    0.0800
     41 H41        -6.0241    3.1919   51.2827 H       1  ZINC000487792031    0.1400
     42 H42        -3.7397    4.1109   51.2660 H       1  ZINC000487792031    0.1400
     43 H43        -0.7624    1.5976   47.5080 H       1  ZINC000487792031    0.0800
     44 H44        -2.0064    2.6810   48.1765 H       1  ZINC000487792031    0.0800
     45 H45        -0.3980    4.5671   48.1127 H       1  ZINC000487792031    0.0600
     46 H46         0.8460    3.4837   47.4442 H       1  ZINC000487792031    0.0600
     47 H47        -0.6131    3.8560   46.4953 H       1  ZINC000487792031    0.0700
     48 H48         0.6323    0.7206   50.4548 H       1  ZINC000487792031    0.0900
     49 H49         1.0345    0.9234   48.7328 H       1  ZINC000487792031    0.0900
     50 H50         2.1280    3.0895   49.2433 H       1  ZINC000487792031    0.0600
     51 H51         1.7259    2.8867   50.9653 H       1  ZINC000487792031    0.0600
     52 H52         2.8637    1.7661   50.1792 H       1  ZINC000487792031    0.0700
     53 H53        -2.1928    0.2490   50.3265 H       1  ZINC000487792031    0.1400
     54 H54        -4.4768   -0.6708   50.3470 H       1  ZINC000487792031    0.1400
     55 H55       -11.1561    0.1033   54.1560 H       1  ZINC000487792031    0.1200
     56 H56       -13.5013   -0.5572   53.7993 H       1  ZINC000487792031    0.1200
     57 H57       -14.8450    0.5605   52.0648 H       1  ZINC000487792031    0.1200
     58 H58       -13.8438    2.3392   50.6875 H       1  ZINC000487792031    0.1200
     59 H59       -11.5000    3.0030   51.0474 H       1  ZINC000487792031    0.1200
@<TRIPOS>BOND
     1     1     2    2
     2     1    31    1
     3     1    32    1
     4     2     3    1
     5     2    33    1
     6     3     4    1
     7     3    34    1
     8     3    35    1
     9     4     5    1
    10     4    36    1
    11     4    37    1
    12     5     6    1
    13     5     7    1
    14     5    25    1
    15     7     8    2
    16     7     9   am
    17     9    10    1
    18     9    38    1
    19    10    11    1
    20    10    39    1
    21    10    40    1
    22    11    24   ar
    23    11    12   ar
    24    12    13   ar
    25    12    41    1
    26    13    14   ar
    27    13    42    1
    28    14    15    1
    29    14    23   ar
    30    15    16    2
    31    15    17    2
    32    15    18   am
    33    18    19    1
    34    18    21    1
    35    19    20    1
    36    19    43    1
    37    19    44    1
    38    20    45    1
    39    20    46    1
    40    20    47    1
    41    21    22    1
    42    21    48    1
    43    21    49    1
    44    22    50    1
    45    22    51    1
    46    22    52    1
    47    23    24   ar
    48    23    53    1
    49    24    54    1
    50    25    30   ar
    51    25    26   ar
    52    26    27   ar
    53    26    55    1
    54    27    28   ar
    55    27    56    1
    56    28    29   ar
    57    28    57    1
    58    29    30   ar
    59    29    58    1
    60    30    59    1
@<TRIPOS>SUBSTRUCTURE
     1 ZINC000487792031        1 TEMP              0 ****  ****    0 ROOT


##########                                Name:    ZINC000572148596
##########                DOCK_Rotatable_Bonds:                   4
##########                         Heavy_Atoms:                  26
##########                    Molecular_Weight:             371.463
##########                DOCK_Rotatable_Bonds:                   4
##########                       Formal_Charge:          -0.0199999
##########                     HBond_Acceptors:                   8
##########                        HBond_Donors:                   0
##########                         Heavy_Atoms:                  26
##########                          Grid_Score:          -33.470829
##########                     Grid_vdw_energy:          -32.664711
##########                      Grid_es_energy:           -0.806118
##########           Internal_energy_repulsive:            5.950574

@<TRIPOS>MOLECULE
ZINC000572148596
 47 50 1 0 0
SMALL
USER_CHARGES


@<TRIPOS>ATOM
      1 C1         -9.3260    1.4600   54.7153 C.3     1  ZINC000572148596   -0.1400
      2 C2         -9.4086    1.9910   53.2827 C.3     1  ZINC000572148596    0.0800
      3 H3         -9.3799    3.0806   53.2969 H       1  ZINC000572148596    0.1200
      4 C4         -8.2417    1.4682   52.4852 C.2     1  ZINC000572148596    0.1800
      5 N5         -8.2097    0.3573   51.8098 N.2     1  ZINC000572148596   -0.3500
      6 O6         -7.1302    0.2160   51.2754 O.3     1  ZINC000572148596    0.0900
      7 C7         -6.3401    1.2608   51.5686 C.2     1  ZINC000572148596    0.2300
      8 C8         -4.9515    1.4714   51.1140 C.ar    1  ZINC000572148596   -0.1200
      9 C9         -4.2676    2.6516   51.4401 C.ar    1  ZINC000572148596   -0.0100
     10 C10        -2.9807    2.8045   50.9972 C.ar    1  ZINC000572148596   -0.1900
     11 C11        -2.3928    1.7923   50.2421 C.ar    1  ZINC000572148596    0.3400
     12 N12        -1.0901    1.9436   49.7926 N.3     1  ZINC000572148596   -0.4700
     13 C13        -0.7760    0.9595   48.7466 C.3     1  ZINC000572148596    0.0300
     14 C14         0.6479    1.2001   48.2381 C.3     1  ZINC000572148596    0.0900
     15 H15         0.9056    0.4376   47.5031 H       1  ZINC000572148596    0.1100
     16 C16         0.7320    2.5835   47.5899 C.3     1  ZINC000572148596   -0.1800
     17 O17         1.5595    1.1310   49.3378 O.3     1  ZINC000572148596   -0.3700
     18 C18         1.2834    2.0762   50.3750 C.3     1  ZINC000572148596    0.0800
     19 H19         1.3619    3.0875   49.9760 H       1  ZINC000572148596    0.0700
     20 C20         2.2910    1.8959   51.5121 C.3     1  ZINC000572148596   -0.1400
     21 C21        -0.1341    1.8445   50.9050 C.3     1  ZINC000572148596    0.0300
     22 N22        -3.0616    0.6861   49.9478 N.ar    1  ZINC000572148596   -0.5200
     23 C23        -4.2985    0.4966   50.3587 C.ar    1  ZINC000572148596    0.1900
     24 N24        -7.0501    2.0676   52.3387 N.2     1  ZINC000572148596   -0.4700
     25 C25       -10.6964    1.5307   52.6497 C.2     1  ZINC000572148596    0.0400
     26 N26       -11.3254    0.4474   52.9590 N.2     1  ZINC000572148596   -0.4500
     27 C27       -12.4418    0.1937   52.3066 C.2     1  ZINC000572148596    0.0400
     28 C28       -12.7731    1.1143   51.3962 C.2     1  ZINC000572148596   -0.2500
     29 S29       -11.5394    2.3720   51.4230 S.3     1  ZINC000572148596    0.1400
     30 H30        -9.3548    0.3704   54.7011 H       1  ZINC000572148596    0.0800
     31 H31        -8.3947    1.7930   55.1731 H       1  ZINC000572148596    0.0700
     32 H32       -10.1700    1.8382   55.2922 H       1  ZINC000572148596    0.0800
     33 H33        -4.7451    3.4225   52.0267 H       1  ZINC000572148596    0.1500
     34 H34        -2.4269    3.7018   51.2309 H       1  ZINC000572148596    0.1500
     35 H35        -0.8499   -0.0466   49.1594 H       1  ZINC000572148596    0.0600
     36 H36        -1.4802    1.0680   47.9217 H       1  ZINC000572148596    0.1000
     37 H37         0.4757    3.3457   48.3258 H       1  ZINC000572148596    0.0700
     38 H38         1.7460    2.7543   47.2282 H       1  ZINC000572148596    0.0600
     39 H39         0.0343    2.6362   46.7541 H       1  ZINC000572148596    0.0700
     40 H40         3.2998    2.0577   51.1327 H       1  ZINC000572148596    0.0700
     41 H41         2.0800    2.6165   52.3022 H       1  ZINC000572148596    0.0700
     42 H42         2.2109    0.8849   51.9116 H       1  ZINC000572148596    0.0600
     43 H43        -0.3697    2.5987   51.6558 H       1  ZINC000572148596    0.1000
     44 H44        -0.1977    0.8525   51.3523 H       1  ZINC000572148596    0.0600
     45 H45        -4.8147   -0.4165   50.1011 H       1  ZINC000572148596    0.1700
     46 H46       -13.0400   -0.6862   52.4921 H       1  ZINC000572148596    0.1800
     47 H47       -13.6451    1.0931   50.7593 H       1  ZINC000572148596    0.1800
@<TRIPOS>BOND
     1     1     2    1
     2     1    30    1
     3     1    31    1
     4     1    32    1
     5     2     3    1
     6     2     4    1
     7     2    25    1
     8     4    24    1
     9     4     5    2
    10     5     6    1
    11     6     7    1
    12     7     8    1
    13     7    24    2
    14     8    23   ar
    15     8     9   ar
    16     9    10   ar
    17     9    33    1
    18    10    11   ar
    19    10    34    1
    20    11    12    1
    21    11    22   ar
    22    12    21    1
    23    12    13    1
    24    13    14    1
    25    13    35    1
    26    13    36    1
    27    14    15    1
    28    14    16    1
    29    14    17    1
    30    16    37    1
    31    16    38    1
    32    16    39    1
    33    17    18    1
    34    18    19    1
    35    18    20    1
    36    18    21    1
    37    20    40    1
    38    20    41    1
    39    20    42    1
    40    21    43    1
    41    21    44    1
    42    22    23   ar
    43    23    45    1
    44    25    29    1
    45    25    26    2
    46    26    27    1
    47    27    28    2
    48    27    46    1
    49    28    29    1
    50    28    47    1
@<TRIPOS>SUBSTRUCTURE
     1 ZINC000572148596        1 TEMP              0 ****  ****    0 ROOT


##########                                Name:    ZINC000957079511
##########                DOCK_Rotatable_Bonds:                   8
##########                         Heavy_Atoms:                  25
##########                    Molecular_Weight:             362.453
##########                DOCK_Rotatable_Bonds:                   8
##########                       Formal_Charge:        -4.32134e-07
##########                     HBond_Acceptors:                   8
##########                        HBond_Donors:                   2
##########                         Heavy_Atoms:                  25
##########                          Grid_Score:          -33.462814
##########                     Grid_vdw_energy:          -29.271357
##########                      Grid_es_energy:           -4.191459
##########           Internal_energy_repulsive:           14.192487

@<TRIPOS>MOLECULE
ZINC000957079511
 47 49 1 0 0
SMALL
USER_CHARGES


@<TRIPOS>ATOM
      1 C1         -7.0414    2.9941   49.9270 C.3     1  ZINC000957079511   -0.0700
      2 C2         -6.5001    2.9948   51.3335 C.2     1  ZINC000957079511    0.0300
      3 C3         -5.6133    2.1174   51.8405 C.2     1  ZINC000957079511   -0.0200
      4 C4         -4.9801    0.9587   51.1139 C.3     1  ZINC000957079511   -0.0600
      5 C5         -3.7808    1.4450   50.3418 C.2     1  ZINC000957079511    0.5100
      6 O6         -3.8025    1.4527   49.1293 O.2     1  ZINC000957079511   -0.5200
      7 N7         -2.6839    1.8712   50.9989 N.am    1  ZINC000957079511   -0.7200
      8 C8         -1.5172    2.3422   50.2483 C.3     1  ZINC000957079511    0.1400
      9 H9         -1.7964    3.1332   49.5523 H       1  ZINC000957079511    0.1100
     10 C10        -0.8231    1.1713   49.5087 C.3     1  ZINC000957079511    0.0800
     11 N11         0.5739    1.6094   49.3359 N.am    1  ZINC000957079511   -0.6200
     12 C12         1.4238    1.1683   48.3874 C.2     1  ZINC000957079511    0.5400
     13 O13         2.5554    1.6019   48.3380 O.2     1  ZINC000957079511   -0.5100
     14 C14         0.9680    0.1363   47.3883 C.3     1  ZINC000957079511    0.0500
     15 O15         1.5939    0.3846   46.1278 O.3     1  ZINC000957079511   -0.2800
     16 C16         0.9968    1.2954   45.3095 C.2     1  ZINC000957079511    0.1200
     17 C17        -0.0415    2.0409   45.6989 C.2     1  ZINC000957079511   -0.3300
     18 S18        -0.5393    3.0939   44.3811 S.3     1  ZINC000957079511    0.1300
     19 C19         0.7250    2.4462   43.3442 C.2     1  ZINC000957079511   -0.1800
     20 C20         1.4232    1.5244   44.0101 C.2     1  ZINC000957079511   -0.1400
     21 C21         0.8862    2.6078   50.3690 C.3     1  ZINC000957079511    0.1100
     22 C22        -0.3933    2.8163   51.2071 C.3     1  ZINC000957079511   -0.1100
     23 H23        -0.3696    2.2010   52.1066 H       1  ZINC000957079511    0.0900
     24 C24        -0.5695    4.2926   51.5680 C.3     1  ZINC000957079511   -0.1400
     25 N25        -5.3968    2.4804   53.1424 N.pl3   1  ZINC000957079511   -0.5600
     26 C26        -6.1597    3.5679   53.3858 C.2     1  ZINC000957079511    0.2000
     27 N27        -6.8130    3.8727   52.2981 N.2     1  ZINC000957079511   -0.4900
     28 H28        -6.3967    3.5989   49.2893 H       1  ZINC000957079511    0.0700
     29 H29        -7.0705    1.9721   49.5493 H       1  ZINC000957079511    0.0600
     30 H30        -8.0486    3.4111   49.9251 H       1  ZINC000957079511    0.0700
     31 H31        -4.6662    0.2049   51.8360 H       1  ZINC000957079511    0.1000
     32 H32        -5.7036    0.5229   50.4250 H       1  ZINC000957079511    0.1200
     33 H33        -2.6669    1.8662   51.9687 H       1  ZINC000957079511    0.4000
     34 H34        -0.8643    0.2642   50.1117 H       1  ZINC000957079511    0.0800
     35 H35        -1.2912    1.0046   48.5386 H       1  ZINC000957079511    0.0800
     36 H36         1.2435   -0.8575   47.7411 H       1  ZINC000957079511    0.0900
     37 H37        -0.1144    0.1944   47.2741 H       1  ZINC000957079511    0.0900
     38 H38        -0.5047    2.0025   46.6738 H       1  ZINC000957079511    0.1700
     39 H39         0.9108    2.7513   42.3251 H       1  ZINC000957079511    0.1800
     40 H40         2.2523    0.9918   43.5680 H       1  ZINC000957079511    0.1500
     41 H41         1.6916    2.2425   51.0061 H       1  ZINC000957079511    0.0800
     42 H42         1.1786    3.5473   49.9001 H       1  ZINC000957079511    0.0800
     43 H43        -0.6206    4.8861   50.6552 H       1  ZINC000957079511    0.0600
     44 H44        -1.4907    4.4202   52.1366 H       1  ZINC000957079511    0.0600
     45 H45         0.2774    4.6231   52.1694 H       1  ZINC000957079511    0.0700
     46 H46        -4.8060    2.0391   53.7725 H       1  ZINC000957079511    0.4200
     47 H47        -6.2166    4.0996   54.3242 H       1  ZINC000957079511    0.2100
@<TRIPOS>BOND
     1     1     2    1
     2     1    28    1
     3     1    29    1
     4     1    30    1
     5     2    27    1
     6     2     3    2
     7     3     4    1
     8     3    25    1
     9     4     5    1
    10     4    31    1
    11     4    32    1
    12     5     6    2
    13     5     7   am
    14     7     8    1
    15     7    33    1
    16     8     9    1
    17     8    22    1
    18     8    10    1
    19    10    11    1
    20    10    34    1
    21    10    35    1
    22    11    12   am
    23    11    21    1
    24    12    13    2
    25    12    14    1
    26    14    15    1
    27    14    36    1
    28    14    37    1
    29    15    16    1
    30    16    20    1
    31    16    17    2
    32    17    18    1
    33    17    38    1
    34    18    19    1
    35    19    20    2
    36    19    39    1
    37    20    40    1
    38    21    22    1
    39    21    41    1
    40    21    42    1
    41    22    23    1
    42    22    24    1
    43    24    43    1
    44    24    44    1
    45    24    45    1
    46    25    26    1
    47    25    46    1
    48    26    27    2
    49    26    47    1
@<TRIPOS>SUBSTRUCTURE
     1 ZINC000957079511        1 TEMP              0 ****  ****    0 ROOT


##########                                Name:    ZINC000744839011
##########                DOCK_Rotatable_Bonds:                  10
##########                         Heavy_Atoms:                  24
##########                    Molecular_Weight:              378.83
##########                DOCK_Rotatable_Bonds:                  10
##########                       Formal_Charge:           0.0300002
##########                     HBond_Acceptors:                   9
##########                        HBond_Donors:                   0
##########                         Heavy_Atoms:                  24
##########                          Grid_Score:          -33.460957
##########                     Grid_vdw_energy:          -32.115276
##########                      Grid_es_energy:           -1.345679
##########           Internal_energy_repulsive:            9.074382

@<TRIPOS>MOLECULE
ZINC000744839011
 43 43 1 0 0
SMALL
USER_CHARGES


@<TRIPOS>ATOM
      1 C1         -5.3443    0.2162   50.6283 C.3     1  ZINC000744839011    0.0400
      2 O2         -6.7578    0.4412   50.8730 O.3     1  ZINC000744839011   -0.3600
      3 C3         -7.1180    1.6702   51.2918 C.2     1  ZINC000744839011    0.5100
      4 O4         -7.3133    2.5549   50.4821 O.2     1  ZINC000744839011   -0.5000
      5 C5         -7.2752    1.9415   52.7327 C.ar    1  ZINC000744839011   -0.1600
      6 C6         -8.4358    1.5387   53.3991 C.ar    1  ZINC000744839011   -0.0100
      7 C7         -8.5789    1.7934   54.7450 C.ar    1  ZINC000744839011   -0.2100
      8 C8         -7.5714    2.4500   55.4411 C.ar    1  ZINC000744839011    0.1800
      9 O9         -7.7166    2.6990   56.7674 O.3     1  ZINC000744839011   -0.2900
     10 C10        -7.6603    1.5752   57.6483 C.3     1  ZINC000744839011    0.0500
     11 C11        -8.0494    2.0149   59.0612 C.3     1  ZINC000744839011    0.0600
     12 O12        -7.9919    0.8733   59.9566 O.3     1  ZINC000744839011   -0.3400
     13 C13        -8.2637    1.0999   61.2513 C.2     1  ZINC000744839011    0.5000
     14 O14        -8.6706    2.1819   61.6027 O.2     1  ZINC000744839011   -0.4900
     15 C15        -8.0613    0.0049   62.2666 C.3     1  ZINC000744839011   -0.6400
     16 S16        -9.4934   -0.0614   63.3780 S.o2    1  ZINC000744839011    2.4400
     17 O17       -10.6611    0.2510   62.6311 O.2     1  ZINC000744839011   -0.9100
     18 O18        -9.4427   -1.2786   64.1096 O.2     1  ZINC000744839011   -0.9100
     19 C19        -9.1499    1.3103   64.5142 C.3     1  ZINC000744839011   -0.5700
     20 C20       -10.3450    1.5100   65.4487 C.3     1  ZINC000744839011   -0.1500
     21 C21        -7.9040    0.9876   65.3416 C.3     1  ZINC000744839011   -0.1500
     22 C22        -6.4140    2.8525   54.7823 C.ar    1  ZINC000744839011   -0.0800
     23 Cl23       -5.1584    3.6720   55.6576 Cl      1  ZINC000744839011   -0.0400
     24 C24        -6.2610    2.5972   53.4373 C.ar    1  ZINC000744839011   -0.0100
     25 H25        -4.9954    0.9024   49.8567 H       1  ZINC000744839011    0.0700
     26 H26        -4.7845    0.3881   51.5476 H       1  ZINC000744839011    0.0700
     27 H27        -5.1920   -0.8110   50.2968 H       1  ZINC000744839011    0.1100
     28 H28        -9.2198    1.0286   52.8591 H       1  ZINC000744839011    0.1500
     29 H29        -9.4758    1.4826   55.2601 H       1  ZINC000744839011    0.1500
     30 H30        -8.3531    0.8077   57.3029 H       1  ZINC000744839011    0.0900
     31 H31        -6.6477    1.1723   57.6591 H       1  ZINC000744839011    0.1000
     32 H32        -7.3569    2.7826   59.4064 H       1  ZINC000744839011    0.1100
     33 H33        -9.0623    2.4176   59.0505 H       1  ZINC000744839011    0.0900
     34 H34        -7.9548   -0.9510   61.7538 H       1  ZINC000744839011    0.1700
     35 H35        -7.1608    0.2085   62.8461 H       1  ZINC000744839011    0.1700
     36 H36        -8.9799    2.2223   63.9419 H       1  ZINC000744839011    0.1400
     37 H37       -10.1386    2.3342   66.1313 H       1  ZINC000744839011    0.0900
     38 H38       -11.2326    1.7399   64.8592 H       1  ZINC000744839011    0.0700
     39 H39       -10.5150    0.5980   66.0210 H       1  ZINC000744839011    0.0800
     40 H40        -7.0527    0.8454   64.6759 H       1  ZINC000744839011    0.0800
     41 H41        -7.6977    1.8118   66.0243 H       1  ZINC000744839011    0.0900
     42 H42        -8.0741    0.0757   65.9138 H       1  ZINC000744839011    0.0800
     43 H43        -5.3624    2.9099   52.9262 H       1  ZINC000744839011    0.1600
@<TRIPOS>BOND
     1     1     2    1
     2     1    25    1
     3     1    26    1
     4     1    27    1
     5     2     3    1
     6     3     4    2
     7     3     5    1
     8     5    24   ar
     9     5     6   ar
    10     6     7   ar
    11     6    28    1
    12     7     8   ar
    13     7    29    1
    14     8     9    1
    15     8    22   ar
    16     9    10    1
    17    10    11    1
    18    10    30    1
    19    10    31    1
    20    11    12    1
    21    11    32    1
    22    11    33    1
    23    12    13    1
    24    13    14    2
    25    13    15    1
    26    15    16    1
    27    15    34    1
    28    15    35    1
    29    16    17    2
    30    16    18    2
    31    16    19    1
    32    19    20    1
    33    19    21    1
    34    19    36    1
    35    20    37    1
    36    20    38    1
    37    20    39    1
    38    21    40    1
    39    21    41    1
    40    21    42    1
    41    22    23    1
    42    22    24   ar
    43    24    43    1
@<TRIPOS>SUBSTRUCTURE
     1 ZINC000744839011        1 TEMP              0 ****  ****    0 ROOT


##########                                Name:    ZINC001342629575
##########                DOCK_Rotatable_Bonds:                   9
##########                         Heavy_Atoms:                  29
##########                    Molecular_Weight:             396.533
##########                DOCK_Rotatable_Bonds:                   9
##########                       Formal_Charge:         -0.00999976
##########                     HBond_Acceptors:                   6
##########                        HBond_Donors:                   0
##########                         Heavy_Atoms:                  29
##########                          Grid_Score:          -33.435047
##########                     Grid_vdw_energy:          -32.001968
##########                      Grid_es_energy:           -1.433080
##########           Internal_energy_repulsive:           20.784513

@<TRIPOS>MOLECULE
ZINC001342629575
 61 64 1 0 0
SMALL
USER_CHARGES


@<TRIPOS>ATOM
      1 C1         -8.0021    0.3263   51.5262 C.2     1  ZINC001342629575   -0.1800
      2 C2         -7.0201    1.0465   52.0088 C.2     1  ZINC001342629575   -0.1600
      3 C3         -5.6275    0.8894   51.4549 C.3     1  ZINC001342629575   -0.0800
      4 C4         -4.9060    2.2379   51.4990 C.3     1  ZINC001342629575    0.0500
      5 H5         -4.6385    2.4733   52.5291 H       1  ZINC001342629575    0.0900
      6 C6         -3.6568    2.1670   50.6592 C.2     1  ZINC001342629575    0.2000
      7 N7         -3.4178    1.3172   49.7008 N.2     1  ZINC001342629575   -0.2700
      8 N8         -2.2572    1.5386   49.1947 N.2     1  ZINC001342629575   -0.3000
      9 C9         -1.6889    2.5498   49.8082 C.2     1  ZINC001342629575    0.3400
     10 N10        -0.4365    3.0784   49.5386 N.3     1  ZINC001342629575   -0.4300
     11 C11        -0.5286    4.1935   48.5613 C.3     1  ZINC001342629575    0.0400
     12 C12         0.8910    4.3065   47.9653 C.3     1  ZINC001342629575   -0.1200
     13 C13         1.5226    2.9137   48.1672 C.3     1  ZINC001342629575   -0.1200
     14 C14         0.4314    2.0762   48.8682 C.3     1  ZINC001342629575    0.0700
     15 H15        -0.1408    1.5074   48.1354 H       1  ZINC001342629575    0.0900
     16 C16         1.0600    1.1365   49.8990 C.3     1  ZINC001342629575    0.1000
     17 H17         0.3201    0.4111   50.2375 H       1  ZINC001342629575    0.0700
     18 C18         1.5823    1.9518   51.1013 C.3     1  ZINC001342629575   -0.1400
     19 C19         2.9137    1.2267   51.4381 C.3     1  ZINC001342629575   -0.1600
     20 C20         3.3821    0.8001   50.0239 C.3     1  ZINC001342629575    0.0500
     21 O21         2.1776    0.4551   49.3175 O.3     1  ZINC001342629575   -0.3700
     22 N22        -2.5663    2.9861   50.7577 N.pl3   1  ZINC001342629575   -0.4600
     23 C23        -2.3756    4.0958   51.6950 C.3     1  ZINC001342629575    0.1100
     24 C24        -1.3713    3.6852   52.7738 C.3     1  ZINC001342629575    0.0500
     25 O25        -1.2738    4.7215   53.7529 O.3     1  ZINC001342629575   -0.3800
     26 C26        -0.3584    4.4358   54.8123 C.3     1  ZINC001342629575    0.0300
     27 C27        -5.8146    3.3116   50.9581 C.ar    1  ZINC001342629575   -0.0900
     28 C28        -6.3945    3.1633   49.7120 C.ar    1  ZINC001342629575   -0.0900
     29 C29        -7.2280    4.1482   49.2158 C.ar    1  ZINC001342629575   -0.1200
     30 C30        -7.4819    5.2813   49.9659 C.ar    1  ZINC001342629575   -0.1200
     31 C31        -6.9027    5.4292   51.2123 C.ar    1  ZINC001342629575   -0.1200
     32 C32        -6.0727    4.4423   51.7103 C.ar    1  ZINC001342629575   -0.1100
     33 H33        -9.0002    0.4388   51.9232 H       1  ZINC001342629575    0.1000
     34 H34        -7.8146   -0.3769   50.7282 H       1  ZINC001342629575    0.1000
     35 H35        -7.2085    1.7528   52.8039 H       1  ZINC001342629575    0.1000
     36 H36        -5.0778    0.1636   52.0541 H       1  ZINC001342629575    0.0900
     37 H37        -5.6839    0.5410   50.4237 H       1  ZINC001342629575    0.0800
     38 H38        -1.2509    3.9560   47.7805 H       1  ZINC001342629575    0.0600
     39 H39        -0.8037    5.1196   49.0661 H       1  ZINC001342629575    0.0800
     40 H40         0.8378    4.5477   46.9037 H       1  ZINC001342629575    0.0800
     41 H41         1.4662    5.0637   48.4980 H       1  ZINC001342629575    0.0800
     42 H42         1.7793    2.4712   47.2047 H       1  ZINC001342629575    0.0800
     43 H43         2.4077    2.9873   48.7990 H       1  ZINC001342629575    0.0800
     44 H44         1.7660    2.9879   50.8170 H       1  ZINC001342629575    0.0900
     45 H45         0.8874    1.8958   51.9393 H       1  ZINC001342629575    0.0800
     46 H46         3.6274    1.9095   51.8989 H       1  ZINC001342629575    0.0800
     47 H47         2.7383    0.3578   52.0725 H       1  ZINC001342629575    0.0800
     48 H48         3.8887    1.6278   49.5276 H       1  ZINC001342629575    0.0600
     49 H49         4.0425   -0.0645   50.0889 H       1  ZINC001342629575    0.0900
     50 H50        -1.9962    4.9646   51.1572 H       1  ZINC001342629575    0.1000
     51 H51        -3.3286    4.3450   52.1617 H       1  ZINC001342629575    0.1100
     52 H52        -1.7071    2.7647   53.2513 H       1  ZINC001342629575    0.0600
     53 H53        -0.3946    3.5228   52.3181 H       1  ZINC001342629575    0.0600
     54 H54        -0.3418    5.2704   55.5132 H       1  ZINC001342629575    0.0900
     55 H55        -0.6745    3.5312   55.3318 H       1  ZINC001342629575    0.0400
     56 H56         0.6398    4.2879   54.4000 H       1  ZINC001342629575    0.0400
     57 H57        -6.1961    2.2781   49.1260 H       1  ZINC001342629575    0.1300
     58 H58        -7.6805    4.0326   48.2421 H       1  ZINC001342629575    0.1200
     59 H59        -8.1324    6.0511   49.5780 H       1  ZINC001342629575    0.1200
     60 H60        -7.1008    6.3146   51.7981 H       1  ZINC001342629575    0.1200
     61 H61        -5.6202    4.5579   52.6841 H       1  ZINC001342629575    0.1200
@<TRIPOS>BOND
     1     1     2    2
     2     1    33    1
     3     1    34    1
     4     2     3    1
     5     2    35    1
     6     3     4    1
     7     3    36    1
     8     3    37    1
     9     4     5    1
    10     4     6    1
    11     4    27    1
    12     6    22    1
    13     6     7    2
    14     7     8    1
    15     8     9    2
    16     9    10    1
    17     9    22    1
    18    10    14    1
    19    10    11    1
    20    11    12    1
    21    11    38    1
    22    11    39    1
    23    12    13    1
    24    12    40    1
    25    12    41    1
    26    13    14    1
    27    13    42    1
    28    13    43    1
    29    14    15    1
    30    14    16    1
    31    16    17    1
    32    16    21    1
    33    16    18    1
    34    18    19    1
    35    18    44    1
    36    18    45    1
    37    19    20    1
    38    19    46    1
    39    19    47    1
    40    20    21    1
    41    20    48    1
    42    20    49    1
    43    22    23    1
    44    23    24    1
    45    23    50    1
    46    23    51    1
    47    24    25    1
    48    24    52    1
    49    24    53    1
    50    25    26    1
    51    26    54    1
    52    26    55    1
    53    26    56    1
    54    27    32   ar
    55    27    28   ar
    56    28    29   ar
    57    28    57    1
    58    29    30   ar
    59    29    58    1
    60    30    31   ar
    61    30    59    1
    62    31    32   ar
    63    31    60    1
    64    32    61    1
@<TRIPOS>SUBSTRUCTURE
     1 ZINC001342629575        1 TEMP              0 ****  ****    0 ROOT


##########                                Name:     oleObject14.pdb
##########                DOCK_Rotatable_Bonds:                   9
##########                         Heavy_Atoms:                  33
##########                    Molecular_Weight:             484.424
##########                DOCK_Rotatable_Bonds:                   9
##########                       Formal_Charge:         0.000299782
##########                     HBond_Acceptors:                   7
##########                        HBond_Donors:                   1
##########                         Heavy_Atoms:                  33
##########                          Grid_Score:          -33.366955
##########                     Grid_vdw_energy:          -33.277126
##########                      Grid_es_energy:           -0.089830
##########           Internal_energy_repulsive:            6.526022

@<TRIPOS>MOLECULE
oleObject14.pdb
 60 63 1 0 0
SMALL
NO_CHARGES


@<TRIPOS>ATOM
      1 C          -3.8347    1.2729   50.4902 C.ar    1  UNL         0.0422
      2 C          -4.7941    0.2828   50.2256 C.ar    1  UNL        -0.0408
      3 C          -6.1593    0.5584   50.4104 C.ar    1  UNL        -0.0288
      4 C          -6.5722    1.8300   50.8624 C.ar    1  UNL         0.0937
      5 C          -5.6018    2.8185   51.1254 C.ar    1  UNL         0.0723
      6 C          -4.2374    2.5401   50.9398 C.ar    1  UNL        -0.0221
      7 CL         -6.0710    4.4119   51.6883 Cl      1  UNL        -0.0814
      8 O          -7.9043    2.1414   51.0568 O.3     1  UNL        -0.3432
      9 C          -8.7583    1.4434   51.9805 C.3     1  UNL         0.0661
     10 C          -9.9225    2.3860   52.3493 C.3     1  UNL         0.0222
     11 N         -11.0727    1.6887   52.9663 N.4     1  UNL        -0.3010
     12 C         -10.7080    0.4765   53.7363 C.3     1  UNL        -0.0010
     13 C         -11.9550   -0.2701   54.2603 C.3     1  UNL        -0.0289
     14 C         -12.9016    0.6413   55.0782 C.3     1  UNL         0.0382
     15 C         -13.1937    1.9450   54.2933 C.3     1  UNL        -0.0289
     16 C         -11.9206    2.6244   53.7363 C.3     1  UNL        -0.0010
     17 C         -12.3441    0.9203   56.4960 C.2     1  UNL         0.2156
     18 O         -11.9841    2.0318   56.8386 O.2     1  UNL        -0.2774
     19 N         -12.2888   -0.1054   57.4309 N.am    1  UNL        -0.3025
     20 C         -11.7948   -0.0332   58.8189 C.3     1  UNL         0.0900
     21 C         -12.8403   -0.4635   59.8461 C.ar    1  UNL        -0.0217
     22 C         -13.6139   -1.6264   59.6557 C.ar    1  UNL        -0.0568
     23 C         -14.5788   -2.0015   60.6049 C.ar    1  UNL        -0.0619
     24 C         -14.7759   -1.2194   61.7538 C.ar    1  UNL        -0.0622
     25 C         -14.0052   -0.0633   61.9537 C.ar    1  UNL        -0.0619
     26 C         -13.0405    0.3114   61.0044 C.ar    1  UNL        -0.0568
     27 C         -10.5031   -0.8247   58.9996 C.ar    1  UNL         0.0652
     28 C         -10.3263   -2.0978   58.4191 C.ar    1  UNL        -0.0383
     29 C          -9.1177   -2.7809   58.6289 C.ar    1  UNL        -0.0588
     30 C          -8.1280   -2.1680   59.4129 C.ar    1  UNL        -0.0438
     31 C          -8.3874   -0.8978   59.9555 C.ar    1  UNL         0.0272
     32 N          -9.5476   -0.2404   59.7552 N.ar    1  UNL        -0.2590
     33 CL         -2.1344    0.9264   50.2590 Cl      1  UNL        -0.0843
     34 H          -4.4816   -0.6976   49.8774 H       1  UNL         0.0639
     35 H          -6.8835   -0.2217   50.1992 H       1  UNL         0.0652
     36 H          -3.4942    3.3055   51.1443 H       1  UNL         0.0655
     37 H          -8.1929    1.1697   52.8794 H       1  UNL         0.0586
     38 H          -9.1590    0.5339   51.5147 H       1  UNL         0.0586
     39 H         -10.2543    2.8810   51.4272 H       1  UNL         0.0455
     40 H          -9.5513    3.1663   53.0266 H       1  UNL         0.0455
     41 H         -10.0692    0.7553   54.5846 H       1  UNL         0.0431
     42 H         -10.1402   -0.2213   53.1101 H       1  UNL         0.0431
     43 H         -11.6424   -1.1315   54.8619 H       1  UNL         0.0288
     44 H         -12.5063   -0.6727   53.4007 H       1  UNL         0.0288
     45 H         -13.8595    0.1218   55.1667 H       1  UNL         0.0402
     46 H         -13.7458    2.6502   54.9275 H       1  UNL         0.0288
     47 H         -13.8512    1.7046   53.4477 H       1  UNL         0.0288
     48 H         -11.3412    3.0481   54.5663 H       1  UNL         0.0431
     49 H         -12.2276    3.4605   53.0947 H       1  UNL         0.0431
     50 H         -12.7238   -0.9750   57.1501 H       1  UNL         0.1504
     51 H         -11.5431    1.0179   59.0096 H       1  UNL         0.0624
     52 H         -13.4762   -2.2368   58.7681 H       1  UNL         0.0626
     53 H         -15.1738   -2.8968   60.4490 H       1  UNL         0.0623
     54 H         -15.5219   -1.5097   62.4881 H       1  UNL         0.0623
     55 H         -14.1541    0.5410   62.8440 H       1  UNL         0.0623
     56 H         -12.4477    1.2069   61.1694 H       1  UNL         0.0626
     57 H         -11.1095   -2.5494   57.8178 H       1  UNL         0.0643
     58 H          -8.9525   -3.7625   58.1942 H       1  UNL         0.0624
     59 H          -7.1803   -2.6653   59.5976 H       1  UNL         0.0639
     60 H          -7.6439   -0.3911   60.5696 H       1  UNL         0.0840
@<TRIPOS>BOND
     1     1     2   ar
     2     1     6   ar
     3     1    33    1
     4     2     3   ar
     5     2    34    1
     6     3     4   ar
     7     3    35    1
     8     4     5   ar
     9     4     8    1
    10     5     6   ar
    11     5     7    1
    12     6    36    1
    13     8     9    1
    14     9    10    1
    15     9    37    1
    16     9    38    1
    17    10    11    1
    18    10    39    1
    19    10    40    1
    20    11    12    1
    21    11    16    1
    22    12    13    1
    23    12    41    1
    24    12    42    1
    25    13    14    1
    26    13    43    1
    27    13    44    1
    28    14    15    1
    29    14    17    1
    30    14    45    1
    31    15    16    1
    32    15    46    1
    33    15    47    1
    34    16    48    1
    35    16    49    1
    36    17    18    2
    37    17    19   am
    38    19    20    1
    39    19    50    1
    40    20    21    1
    41    20    27    1
    42    20    51    1
    43    21    22   ar
    44    21    26   ar
    45    22    23   ar
    46    22    52    1
    47    23    24   ar
    48    23    53    1
    49    24    25   ar
    50    24    54    1
    51    25    26   ar
    52    25    55    1
    53    26    56    1
    54    27    28   ar
    55    27    32   ar
    56    28    29   ar
    57    28    57    1
    58    29    30   ar
    59    29    58    1
    60    30    31   ar
    61    30    59    1
    62    31    32   ar
    63    31    60    1
@<TRIPOS>SUBSTRUCTURE
     1 UNL         1 TEMP              0 ****  ****    0 ROOT


##########                                Name:    ZINC000482540246
##########                DOCK_Rotatable_Bonds:                  10
##########                         Heavy_Atoms:                  30
##########                    Molecular_Weight:              409.46
##########                DOCK_Rotatable_Bonds:                  10
##########                       Formal_Charge:         2.83122e-07
##########                     HBond_Acceptors:                   7
##########                        HBond_Donors:                   2
##########                         Heavy_Atoms:                  30
##########                          Grid_Score:          -33.316898
##########                     Grid_vdw_energy:          -34.063950
##########                      Grid_es_energy:            0.747051
##########           Internal_energy_repulsive:           14.330732

@<TRIPOS>MOLECULE
ZINC000482540246
 54 56 1 0 0
SMALL
USER_CHARGES


@<TRIPOS>ATOM
      1 C1          4.8513    3.2255   55.5887 C.3     1  ZINC000482540246    0.0400
      2 O2          5.3614    3.9178   54.4474 O.3     1  ZINC000482540246   -0.3100
      3 C3          5.0932    3.3808   53.2306 C.ar    1  ZINC000482540246    0.3300
      4 C4          4.3480    2.2122   53.1438 C.ar    1  ZINC000482540246   -0.1800
      5 C5          4.0813    1.6745   51.8965 C.ar    1  ZINC000482540246   -0.0100
      6 C6          3.2759    0.4082   51.7593 C.3     1  ZINC000482540246    0.2000
      7 H7          2.5670    0.3373   52.5841 H       1  ZINC000482540246    0.1000
      8 C8          4.2152   -0.7993   51.7889 C.3     1  ZINC000482540246   -0.1600
      9 N9          2.5467    0.4285   50.4888 N.am    1  ZINC000482540246   -0.7400
     10 C10         1.4495    1.1995   50.3539 C.2     1  ZINC000482540246    0.7100
     11 O11         1.0639    1.8769   51.2872 O.2     1  ZINC000482540246   -0.5800
     12 N12         0.7795    1.2195   49.1846 N.am    1  ZINC000482540246   -0.7400
     13 C13        -0.4121    2.0589   49.0375 C.3     1  ZINC000482540246    0.2100
     14 H14        -0.3887    2.8566   49.7799 H       1  ZINC000482540246    0.1200
     15 C15        -1.6654    1.2061   49.2446 C.3     1  ZINC000482540246    0.0500
     16 O16        -2.1059    1.3277   50.5986 O.3     1  ZINC000482540246   -0.3000
     17 C17        -3.4451    1.4413   50.8040 C.ar    1  ZINC000482540246    0.1000
     18 C18        -4.2996    0.4327   50.3870 C.ar    1  ZINC000482540246   -0.1800
     19 C19        -5.6607    0.5500   50.5975 C.ar    1  ZINC000482540246   -0.0900
     20 C20        -6.1712    1.6717   51.2232 C.ar    1  ZINC000482540246   -0.1300
     21 C21        -5.3222    2.6806   51.6406 C.ar    1  ZINC000482540246   -0.1200
     22 C22        -3.9590    2.5660   51.4378 C.ar    1  ZINC000482540246    0.0700
     23 F23        -3.1293    3.5512   51.8453 F       1  ZINC000482540246   -0.1300
     24 C24        -0.4360    2.6594   47.6555 C.ar    1  ZINC000482540246   -0.1000
     25 C25        -0.7347    1.8672   46.5627 C.ar    1  ZINC000482540246   -0.0800
     26 C26        -0.7566    2.4181   45.2950 C.ar    1  ZINC000482540246   -0.1200
     27 C27        -0.4803    3.7612   45.1201 C.ar    1  ZINC000482540246   -0.1200
     28 C28        -0.1826    4.5535   46.2130 C.ar    1  ZINC000482540246   -0.1200
     29 C29        -0.1649    4.0036   47.4812 C.ar    1  ZINC000482540246   -0.1000
     30 C30         4.5721    2.3285   50.7752 C.ar    1  ZINC000482540246   -0.2100
     31 C31         5.3063    3.4870   50.9360 C.ar    1  ZINC000482540246    0.1500
     32 N32         5.5395    3.9783   52.1381 N.ar    1  ZINC000482540246   -0.5400
     33 H33         5.1365    3.7596   56.4951 H       1  ZINC000482540246    0.1000
     34 H34         3.7644    3.1719   55.5254 H       1  ZINC000482540246    0.0600
     35 H35         5.2638    2.2169   55.6162 H       1  ZINC000482540246    0.0600
     36 H36         3.9816    1.7290   54.0376 H       1  ZINC000482540246    0.1500
     37 H37         4.9241   -0.7284   50.9641 H       1  ZINC000482540246    0.0600
     38 H38         4.7577   -0.8144   52.7341 H       1  ZINC000482540246    0.0700
     39 H39         3.6326   -1.7152   51.6897 H       1  ZINC000482540246    0.0700
     40 H40         2.8536   -0.1128   49.7447 H       1  ZINC000482540246    0.4000
     41 H41         1.0864    0.6783   48.4405 H       1  ZINC000482540246    0.4000
     42 H42        -2.4532    1.5492   48.5739 H       1  ZINC000482540246    0.0800
     43 H43        -1.4344    0.1627   49.0300 H       1  ZINC000482540246    0.0800
     44 H44        -3.9022   -0.4442   49.8976 H       1  ZINC000482540246    0.1400
     45 H45        -6.3264   -0.2358   50.2721 H       1  ZINC000482540246    0.1300
     46 H46        -7.2350    1.7606   51.3863 H       1  ZINC000482540246    0.1400
     47 H47        -5.7236    3.5562   52.1289 H       1  ZINC000482540246    0.1400
     48 H48        -0.9506    0.8178   46.6994 H       1  ZINC000482540246    0.1200
     49 H49        -0.9893    1.7989   44.4412 H       1  ZINC000482540246    0.1200
     50 H50        -0.4968    4.1913   44.1296 H       1  ZINC000482540246    0.1200
     51 H51         0.0336    5.6028   46.0764 H       1  ZINC000482540246    0.1200
     52 H52         0.0678    4.6227   48.3350 H       1  ZINC000482540246    0.1200
     53 H53         4.3823    1.9354   49.7873 H       1  ZINC000482540246    0.1400
     54 H54         5.6904    3.9998   50.0667 H       1  ZINC000482540246    0.1600
@<TRIPOS>BOND
     1     1     2    1
     2     1    33    1
     3     1    34    1
     4     1    35    1
     5     2     3    1
     6     3    32   ar
     7     3     4   ar
     8     4     5   ar
     9     4    36    1
    10     5     6    1
    11     5    30   ar
    12     6     7    1
    13     6     8    1
    14     6     9    1
    15     8    37    1
    16     8    38    1
    17     8    39    1
    18     9    10   am
    19     9    40    1
    20    10    11    2
    21    10    12   am
    22    12    13    1
    23    12    41    1
    24    13    14    1
    25    13    15    1
    26    13    24    1
    27    15    16    1
    28    15    42    1
    29    15    43    1
    30    16    17    1
    31    17    22   ar
    32    17    18   ar
    33    18    19   ar
    34    18    44    1
    35    19    20   ar
    36    19    45    1
    37    20    21   ar
    38    20    46    1
    39    21    22   ar
    40    21    47    1
    41    22    23    1
    42    24    29   ar
    43    24    25   ar
    44    25    26   ar
    45    25    48    1
    46    26    27   ar
    47    26    49    1
    48    27    28   ar
    49    27    50    1
    50    28    29   ar
    51    28    51    1
    52    29    52    1
    53    30    31   ar
    54    30    53    1
    55    31    32   ar
    56    31    54    1
@<TRIPOS>SUBSTRUCTURE
     1 ZINC000482540246        1 TEMP              0 ****  ****    0 ROOT


##########                                Name:    ZINC000880838037
##########                DOCK_Rotatable_Bonds:                   9
##########                         Heavy_Atoms:                  24
##########                    Molecular_Weight:             365.477
##########                DOCK_Rotatable_Bonds:                   9
##########                       Formal_Charge:           0.0200001
##########                     HBond_Acceptors:                   8
##########                        HBond_Donors:                   3
##########                         Heavy_Atoms:                  24
##########                          Grid_Score:          -33.291267
##########                     Grid_vdw_energy:          -32.072834
##########                      Grid_es_energy:           -1.218434
##########           Internal_energy_repulsive:           10.571733

@<TRIPOS>MOLECULE
ZINC000880838037
 43 44 1 0 0
SMALL
USER_CHARGES


@<TRIPOS>ATOM
      1 C1         -6.4035    3.2220   54.0499 C.3     1  ZINC000880838037    0.0300
      2 O2         -6.2861    3.4061   52.6376 O.3     1  ZINC000880838037   -0.3100
      3 C3         -5.8114    2.3569   51.9161 C.ar    1  ZINC000880838037    0.1400
      4 C4         -6.6723    1.3466   51.5113 C.ar    1  ZINC000880838037   -0.2200
      5 C5         -6.1910    0.2789   50.7774 C.ar    1  ZINC000880838037   -0.0700
      6 C6         -4.8520    0.2136   50.4451 C.ar    1  ZINC000880838037   -0.1500
      7 C7         -3.9854    1.2220   50.8480 C.ar    1  ZINC000880838037    0.1800
      8 N8         -2.6289    1.1559   50.5113 N.am    1  ZINC000880838037   -0.6700
      9 C9         -2.2242    1.5015   49.2731 C.2     1  ZINC000880838037    0.5200
     10 O10        -3.0359    1.8699   48.4507 O.2     1  ZINC000880838037   -0.4900
     11 C11        -0.7633    1.4303   48.9106 C.3     1  ZINC000880838037   -0.0600
     12 C12        -0.5901    1.7722   47.4531 C.2     1  ZINC000880838037    0.1000
     13 C13        -0.4986    0.8431   46.5011 C.2     1  ZINC000880838037   -0.2600
     14 S14        -0.3060    1.6623   44.9534 S.3     1  ZINC000880838037    0.1300
     15 C15        -0.3672    3.1805   45.7373 C.2     1  ZINC000880838037    0.0100
     16 S16        -0.2458    4.7405   44.9271 S.3     1  ZINC000880838037    0.1000
     17 C17         0.4969    4.2236   43.3595 C.3     1  ZINC000880838037   -0.1500
     18 H18         0.0272    3.2996   43.0222 H       1  ZINC000880838037    0.1200
     19 C19         1.9961    3.9910   43.5576 C.3     1  ZINC000880838037   -0.1500
     20 C20         0.2879    5.2998   42.3255 C.2     1  ZINC000880838037    0.5400
     21 N21        -0.8185    5.2891   41.5559 N.am    1  ZINC000880838037   -0.8400
     22 O22         1.1152    6.1755   42.1860 O.2     1  ZINC000880838037   -0.5200
     23 N23        -0.5222    3.0166   47.0151 N.2     1  ZINC000880838037   -0.4200
     24 C24        -4.4681    2.2980   51.5792 C.ar    1  ZINC000880838037   -0.1500
     25 C25        -3.5310    3.3937   52.0180 C.3     1  ZINC000880838037   -0.1000
     26 H26        -5.4230    2.9975   54.4697 H       1  ZINC000880838037    0.0600
     27 H27        -6.7933    4.1332   54.5039 H       1  ZINC000880838037    0.1000
     28 H28        -7.0839    2.3951   54.2532 H       1  ZINC000880838037    0.0600
     29 H29        -7.7197    1.3946   51.7703 H       1  ZINC000880838037    0.1300
     30 H30        -6.8631   -0.5061   50.4637 H       1  ZINC000880838037    0.1300
     31 H31        -4.4783   -0.6220   49.8719 H       1  ZINC000880838037    0.1400
     32 H32        -1.9798    0.8613   51.1692 H       1  ZINC000880838037    0.4100
     33 H33        -0.2028    2.1398   49.5193 H       1  ZINC000880838037    0.1200
     34 H34        -0.3922    0.4219   49.0937 H       1  ZINC000880838037    0.1200
     35 H35        -0.5355   -0.2255   46.6525 H       1  ZINC000880838037    0.1800
     36 H36         2.4657    4.9149   43.8949 H       1  ZINC000880838037    0.0900
     37 H37         2.1473    3.2125   44.3054 H       1  ZINC000880838037    0.0800
     38 H38         2.4433    3.6796   42.6136 H       1  ZINC000880838037    0.0800
     39 H39        -0.9536    5.9825   40.8912 H       1  ZINC000880838037    0.4000
     40 H40        -1.4796    4.5879   41.6667 H       1  ZINC000880838037    0.4100
     41 H41        -3.4918    4.1671   51.2509 H       1  ZINC000880838037    0.0700
     42 H42        -3.8897    3.8262   52.9520 H       1  ZINC000880838037    0.0700
     43 H43        -2.5338    2.9803   52.1684 H       1  ZINC000880838037    0.0600
@<TRIPOS>BOND
     1     1     2    1
     2     1    26    1
     3     1    27    1
     4     1    28    1
     5     2     3    1
     6     3    24   ar
     7     3     4   ar
     8     4     5   ar
     9     4    29    1
    10     5     6   ar
    11     5    30    1
    12     6     7   ar
    13     6    31    1
    14     7     8    1
    15     7    24   ar
    16     8     9   am
    17     8    32    1
    18     9    10    2
    19     9    11    1
    20    11    12    1
    21    11    33    1
    22    11    34    1
    23    12    23    1
    24    12    13    2
    25    13    14    1
    26    13    35    1
    27    14    15    1
    28    15    16    1
    29    15    23    2
    30    16    17    1
    31    17    18    1
    32    17    19    1
    33    17    20    1
    34    19    36    1
    35    19    37    1
    36    19    38    1
    37    20    21   am
    38    20    22    2
    39    21    39    1
    40    21    40    1
    41    24    25    1
    42    25    41    1
    43    25    42    1
    44    25    43    1
@<TRIPOS>SUBSTRUCTURE
     1 ZINC000880838037        1 TEMP              0 ****  ****    0 ROOT


##########                                Name:    ZINC001105194920
##########                DOCK_Rotatable_Bonds:                   8
##########                         Heavy_Atoms:                  25
##########                    Molecular_Weight:             346.392
##########                DOCK_Rotatable_Bonds:                   8
##########                       Formal_Charge:          -0.0100007
##########                     HBond_Acceptors:                  10
##########                        HBond_Donors:                   3
##########                         Heavy_Atoms:                  25
##########                          Grid_Score:          -33.280724
##########                     Grid_vdw_energy:          -33.087147
##########                      Grid_es_energy:           -0.193578
##########           Internal_energy_repulsive:            8.403393

@<TRIPOS>MOLECULE
ZINC001105194920
 47 49 1 0 0
SMALL
USER_CHARGES


@<TRIPOS>ATOM
      1 C1         -9.6176    1.2410   52.2776 C.3     1  ZINC001105194920    0.0300
      2 O2         -8.2693    0.7678   52.2934 O.3     1  ZINC001105194920   -0.3900
      3 C3         -7.2883    1.8058   52.2456 C.3     1  ZINC001105194920    0.0700
      4 C4         -6.0814    1.3298   51.4347 C.3     1  ZINC001105194920    0.0900
      5 H5         -5.4030    0.7762   52.0839 H       1  ZINC001105194920    0.0900
      6 C6         -6.5562    0.4207   50.2993 C.3     1  ZINC001105194920   -0.1800
      7 N7         -5.3808    2.4917   50.8713 N.3     1  ZINC001105194920   -0.6800
      8 C8         -4.1456    2.7731   51.6149 C.3     1  ZINC001105194920    0.1400
      9 C9         -2.9784    2.1293   50.9119 C.2     1  ZINC001105194920   -0.0200
     10 C10        -1.7086    2.5950   50.8577 C.2     1  ZINC001105194920   -0.0200
     11 N11        -1.0091    1.6979   50.1249 N.pl3   1  ZINC001105194920   -0.2800
     12 C12         0.4163    1.7822   49.7974 C.3     1  ZINC001105194920    0.1000
     13 C13         0.7897    1.0931   48.4724 C.3     1  ZINC001105194920    0.1100
     14 N14         0.5429    2.4025   47.8380 N.am    1  ZINC001105194920   -0.6300
     15 C15         0.2033    2.8014   46.5961 C.2     1  ZINC001105194920    0.6200
     16 O16         0.0624    3.9847   46.3551 O.2     1  ZINC001105194920   -0.5400
     17 C17         0.0020    1.8009   45.5280 C.ar    1  ZINC001105194920   -0.0600
     18 N18        -1.2137    1.3214   45.2820 N.ar    1  ZINC001105194920   -0.3700
     19 C19        -1.3896    0.4290   44.3287 C.ar    1  ZINC001105194920   -0.0200
     20 C20        -0.3114   -0.0155   43.5770 C.ar    1  ZINC001105194920    0.1500
     21 N21         0.9017    0.4512   43.8100 N.ar    1  ZINC001105194920   -0.5100
     22 C22         1.0930    1.3556   44.7635 C.ar    1  ZINC001105194920    0.4200
     23 N23         2.3615    1.8473   45.0105 N.pl3   1  ZINC001105194920   -0.8100
     24 C24         0.8173    3.0997   49.1094 C.3     1  ZINC001105194920    0.1100
     25 N25        -1.8112    0.7577   49.7654 N.2     1  ZINC001105194920   -0.0800
     26 N26        -2.9921    0.9824   50.2236 N.2     1  ZINC001105194920   -0.2600
     27 H27        -9.7931    1.8075   51.3630 H       1  ZINC001105194920    0.0400
     28 H28       -10.3008    0.3927   52.3164 H       1  ZINC001105194920    0.0800
     29 H29        -9.7871    1.8839   53.1414 H       1  ZINC001105194920    0.0400
     30 H30        -7.7174    2.6897   51.7736 H       1  ZINC001105194920    0.0600
     31 H31        -6.9709    2.0528   53.2586 H       1  ZINC001105194920    0.0500
     32 H32        -7.2346    0.9743   49.6502 H       1  ZINC001105194920    0.0700
     33 H33        -5.6963    0.0815   49.7216 H       1  ZINC001105194920    0.0500
     34 H34        -7.0759   -0.4414   50.7173 H       1  ZINC001105194920    0.0600
     35 H35        -5.1894    2.3574   49.8897 H       1  ZINC001105194920    0.3500
     36 H36        -3.9897    3.8507   51.6658 H       1  ZINC001105194920    0.0900
     37 H37        -4.2292    2.3699   52.6240 H       1  ZINC001105194920    0.0500
     38 H38        -1.3301    3.5006   51.3082 H       1  ZINC001105194920    0.1800
     39 H39         1.0612    1.5095   50.6328 H       1  ZINC001105194920    0.1500
     40 H40         1.8295    0.7700   48.4231 H       1  ZINC001105194920    0.1200
     41 H41         0.0870    0.3176   48.1673 H       1  ZINC001105194920    0.1000
     42 H42        -2.3782    0.0414   44.1317 H       1  ZINC001105194920    0.1800
     43 H43        -0.4650   -0.7472   42.7975 H       1  ZINC001105194920    0.1800
     44 H44         3.1011    1.5910   44.4377 H       1  ZINC001105194920    0.4000
     45 H45         2.5119    2.4485   45.7568 H       1  ZINC001105194920    0.4300
     46 H46         0.1366    3.9264   49.3129 H       1  ZINC001105194920    0.1100
     47 H47         1.8652    3.3661   49.2471 H       1  ZINC001105194920    0.1200
@<TRIPOS>BOND
     1     1     2    1
     2     1    27    1
     3     1    28    1
     4     1    29    1
     5     2     3    1
     6     3     4    1
     7     3    30    1
     8     3    31    1
     9     4     5    1
    10     4     6    1
    11     4     7    1
    12     6    32    1
    13     6    33    1
    14     6    34    1
    15     7     8    1
    16     7    35    1
    17     8     9    1
    18     8    36    1
    19     8    37    1
    20     9    26    1
    21     9    10    2
    22    10    11    1
    23    10    38    1
    24    11    12    1
    25    11    25    1
    26    12    24    1
    27    12    13    1
    28    12    39    1
    29    13    14    1
    30    13    40    1
    31    13    41    1
    32    14    15   am
    33    14    24    1
    34    15    16    2
    35    15    17    1
    36    17    22   ar
    37    17    18   ar
    38    18    19   ar
    39    19    20   ar
    40    19    42    1
    41    20    21   ar
    42    20    43    1
    43    21    22   ar
    44    22    23    1
    45    23    44    1
    46    23    45    1
    47    24    46    1
    48    24    47    1
    49    25    26    2
@<TRIPOS>SUBSTRUCTURE
     1 ZINC001105194920        1 TEMP              0 ****  ****    0 ROOT


##########                                Name:    ZINC000583220082
##########                DOCK_Rotatable_Bonds:                   9
##########                         Heavy_Atoms:                  29
##########                    Molecular_Weight:             417.492
##########                DOCK_Rotatable_Bonds:                   9
##########                       Formal_Charge:          -0.0400006
##########                     HBond_Acceptors:                  11
##########                        HBond_Donors:                   3
##########                         Heavy_Atoms:                  29
##########                          Grid_Score:          -33.278130
##########                     Grid_vdw_energy:          -33.356075
##########                      Grid_es_energy:            0.077944
##########           Internal_energy_repulsive:           16.249678

@<TRIPOS>MOLECULE
ZINC000583220082
 52 54 1 0 0
SMALL
USER_CHARGES


@<TRIPOS>ATOM
      1 C1         -9.7300    4.0261   50.4982 C.3     1  ZINC000583220082    0.0800
      2 N2         -9.0309    3.1115   51.4043 N.am    1  ZINC000583220082   -0.6300
      3 C3         -9.7961    2.2207   52.2800 C.3     1  ZINC000583220082    0.0800
      4 C4         -7.6835    3.0896   51.4321 C.2     1  ZINC000583220082    0.5100
      5 O5         -7.0500    3.8282   50.7081 O.2     1  ZINC000583220082   -0.5300
      6 C6         -6.9643    2.1476   52.3627 C.3     1  ZINC000583220082   -0.1000
      7 C7         -5.6489    1.7421   51.7492 C.ar    1  ZINC000583220082   -0.0800
      8 C8         -4.5181    2.5055   51.9746 C.ar    1  ZINC000583220082   -0.0800
      9 C9         -3.3111    2.1369   51.4140 C.ar    1  ZINC000583220082   -0.1400
     10 C10        -3.2336    0.9972   50.6232 C.ar    1  ZINC000583220082    0.1400
     11 N11        -2.0139    0.6210   50.0547 N.am    1  ZINC000583220082   -0.6400
     12 C12        -1.3279    1.4950   49.2919 C.2     1  ZINC000583220082    0.5100
     13 O13        -1.7696    2.6089   49.0987 O.2     1  ZINC000583220082   -0.4900
     14 C14        -0.0242    1.0928   48.6842 C.2     1  ZINC000583220082    0.5100
     15 O15        -0.0064    0.3747   47.7061 O.2     1  ZINC000583220082   -0.5100
     16 N16         1.1326    1.5275   49.2221 N.am    1  ZINC000583220082   -0.5800
     17 C17         1.1339    2.3935   50.4110 C.3     1  ZINC000583220082    0.0600
     18 C18         2.0786    1.7870   51.4540 C.3     1  ZINC000583220082    0.0300
     19 N19         3.3971    1.5653   50.8456 N.3     1  ZINC000583220082   -0.4300
     20 C20         4.3212    1.1708   51.7955 C.2     1  ZINC000583220082    0.2900
     21 N21         4.5006   -0.0384   52.2836 N.2     1  ZINC000583220082   -0.5700
     22 C22         5.4488   -0.1789   53.1868 C.2     1  ZINC000583220082    0.5400
     23 N23         5.7175   -1.4192   53.7642 N.pl3   1  ZINC000583220082   -0.8200
     24 N24         6.1287    0.8849   53.5225 N.2     1  ZINC000583220082   -0.5500
     25 S25         5.4911    2.1544   52.5903 S.3     1  ZINC000583220082    0.2000
     26 C26         3.3209    0.5909   49.7489 C.3     1  ZINC000583220082    0.0500
     27 C27         2.4273    1.1435   48.6396 C.3     1  ZINC000583220082    0.1100
     28 C28        -4.3716    0.2323   50.3992 C.ar    1  ZINC000583220082   -0.1200
     29 C29        -5.5742    0.6042   50.9668 C.ar    1  ZINC000583220082   -0.0800
     30 H30        -9.9068    4.9749   51.0049 H       1  ZINC000583220082    0.0500
     31 H31        -9.1197    4.1962   49.6113 H       1  ZINC000583220082    0.0800
     32 H32       -10.6838    3.5879   50.2044 H       1  ZINC000583220082    0.0700
     33 H33       -10.8623    2.3798   52.1180 H       1  ZINC000583220082    0.0800
     34 H34        -9.5449    1.1846   52.0534 H       1  ZINC000583220082    0.0600
     35 H35        -9.5508    2.4349   53.3202 H       1  ZINC000583220082    0.0600
     36 H36        -6.7828    2.6457   53.3151 H       1  ZINC000583220082    0.1000
     37 H37        -7.5770    1.2612   52.5273 H       1  ZINC000583220082    0.1000
     38 H38        -4.5790    3.3913   52.5895 H       1  ZINC000583220082    0.1300
     39 H39        -2.4285    2.7339   51.5898 H       1  ZINC000583220082    0.1300
     40 H40        -1.6609   -0.2693   50.2091 H       1  ZINC000583220082    0.4200
     41 H41         1.4813    3.3899   50.1378 H       1  ZINC000583220082    0.0900
     42 H42         0.1258    2.4538   50.8211 H       1  ZINC000583220082    0.1700
     43 H43         2.1773    2.4711   52.2968 H       1  ZINC000583220082    0.1100
     44 H44         1.6742    0.8365   51.8020 H       1  ZINC000583220082    0.0700
     45 H45         6.3142   -1.4802   54.5265 H       1  ZINC000583220082    0.4200
     46 H46         5.3077   -2.2210   53.4035 H       1  ZINC000583220082    0.4200
     47 H47         4.3207    0.4078   49.3550 H       1  ZINC000583220082    0.1100
     48 H48         2.8992   -0.3428   50.1206 H       1  ZINC000583220082    0.0600
     49 H49         2.2754    0.3795   47.8771 H       1  ZINC000583220082    0.1100
     50 H50         2.8965    2.0209   48.1944 H       1  ZINC000583220082    0.0900
     51 H51        -4.3148   -0.6543   49.7850 H       1  ZINC000583220082    0.1400
     52 H52        -6.4592    0.0100   50.7932 H       1  ZINC000583220082    0.1300
@<TRIPOS>BOND
     1     1     2    1
     2     1    30    1
     3     1    31    1
     4     1    32    1
     5     2     3    1
     6     2     4   am
     7     3    33    1
     8     3    34    1
     9     3    35    1
    10     4     5    2
    11     4     6    1
    12     6     7    1
    13     6    36    1
    14     6    37    1
    15     7    29   ar
    16     7     8   ar
    17     8     9   ar
    18     8    38    1
    19     9    10   ar
    20     9    39    1
    21    10    11    1
    22    10    28   ar
    23    11    12   am
    24    11    40    1
    25    12    13    2
    26    12    14    1
    27    14    15    2
    28    14    16   am
    29    16    27    1
    30    16    17    1
    31    17    18    1
    32    17    41    1
    33    17    42    1
    34    18    19    1
    35    18    43    1
    36    18    44    1
    37    19    20    1
    38    19    26    1
    39    20    25    1
    40    20    21    2
    41    21    22    1
    42    22    23    1
    43    22    24    2
    44    23    45    1
    45    23    46    1
    46    24    25    1
    47    26    27    1
    48    26    47    1
    49    26    48    1
    50    27    49    1
    51    27    50    1
    52    28    29   ar
    53    28    51    1
    54    29    52    1
@<TRIPOS>SUBSTRUCTURE
     1 ZINC000583220082        1 TEMP              0 ****  ****    0 ROOT


##########                                Name:    ZINC000124554441
##########                DOCK_Rotatable_Bonds:                   9
##########                         Heavy_Atoms:                  26
##########                    Molecular_Weight:             375.898
##########                DOCK_Rotatable_Bonds:                   9
##########                       Formal_Charge:         -0.00999991
##########                     HBond_Acceptors:                   6
##########                        HBond_Donors:                   1
##########                         Heavy_Atoms:                  26
##########                          Grid_Score:          -33.251465
##########                     Grid_vdw_energy:          -32.917446
##########                      Grid_es_energy:           -0.334021
##########           Internal_energy_repulsive:           13.721708

@<TRIPOS>MOLECULE
ZINC000124554441
 52 53 1 0 0
SMALL
USER_CHARGES


@<TRIPOS>ATOM
      1 C1          1.4581   -0.5451   62.3606 C.3     1  ZINC000124554441   -0.1500
      2 C2          0.1243    0.1245   62.0236 C.3     1  ZINC000124554441   -0.1300
      3 C3          0.3609    1.2581   61.0238 C.3     1  ZINC000124554441   -0.1200
      4 C4          0.8767    0.6765   59.7060 C.3     1  ZINC000124554441   -0.1200
      5 C5          0.9593    1.7865   58.6562 C.3     1  ZINC000124554441   -0.1300
      6 C6         -0.3881    1.9149   57.9429 C.3     1  ZINC000124554441    0.1200
      7 N7         -0.2695    2.8774   56.8448 N.am    1  ZINC000124554441   -0.7300
      8 C8         -1.3779    3.4032   56.2867 C.2     1  ZINC000124554441    0.5200
      9 O9         -2.4736    3.0807   56.6946 O.2     1  ZINC000124554441   -0.5300
     10 C10        -1.2559    4.3919   55.1559 C.3     1  ZINC000124554441   -0.1200
     11 H11        -2.2240    4.8587   54.9748 H       1  ZINC000124554441    0.1000
     12 C12        -0.2315    5.4670   55.5258 C.3     1  ZINC000124554441   -0.1000
     13 C13        -0.1308    6.4898   54.3919 C.3     1  ZINC000124554441   -0.1400
     14 C14         0.3450    5.7870   53.1165 C.3     1  ZINC000124554441    0.0900
     15 N15        -0.5540    4.6597   52.8342 N.am    1  ZINC000124554441   -0.6000
     16 C16        -1.1480    4.5397   51.6305 C.2     1  ZINC000124554441    0.5600
     17 O17        -0.9422    5.3688   50.7658 O.2     1  ZINC000124554441   -0.5200
     18 C18        -2.0506    3.3991   51.3615 C.ar    1  ZINC000124554441   -0.0900
     19 C19        -1.5574    2.2506   50.7392 C.ar    1  ZINC000124554441   -0.0900
     20 C20        -2.3967    1.1879   50.4882 C.ar    1  ZINC000124554441   -0.0600
     21 C21        -3.7423    1.2586   50.8557 C.ar    1  ZINC000124554441    0.0100
     22 C22        -4.6151    0.1537   50.5948 C.1     1  ZINC000124554441    0.2400
     23 N23        -5.3075   -0.7229   50.3878 N.1     1  ZINC000124554441   -0.3800
     24 C24        -4.2367    2.4085   51.4788 C.ar    1  ZINC000124554441    0.0000
     25 Cl25       -5.9089    2.4975   51.9366 Cl      1  ZINC000124554441   -0.0400
     26 C26        -3.3939    3.4692   51.7350 C.ar    1  ZINC000124554441   -0.0600
     27 C27        -0.7936    3.6652   53.8890 C.3     1  ZINC000124554441    0.1200
     28 H28         1.9017   -0.9497   61.4508 H       1  ZINC000124554441    0.0500
     29 H29         2.1334    0.1902   62.7981 H       1  ZINC000124554441    0.0500
     30 H30         1.2895   -1.3527   63.0729 H       1  ZINC000124554441    0.0500
     31 H31        -0.5510   -0.6108   61.5860 H       1  ZINC000124554441    0.0600
     32 H32        -0.3193    0.5290   62.9334 H       1  ZINC000124554441    0.0600
     33 H33        -0.5753    1.7869   60.8458 H       1  ZINC000124554441    0.0600
     34 H34         1.0985    1.9513   61.4283 H       1  ZINC000124554441    0.0600
     35 H35         1.8672    0.2484   59.8607 H       1  ZINC000124554441    0.0700
     36 H36         0.1951   -0.1006   59.3603 H       1  ZINC000124554441    0.0700
     37 H37         1.2035    2.7303   59.1439 H       1  ZINC000124554441    0.0700
     38 H38         1.7335    1.5422   57.9291 H       1  ZINC000124554441    0.0700
     39 H39        -0.6824    0.9439   57.5446 H       1  ZINC000124554441    0.0700
     40 H40        -1.1420    2.2613   58.6497 H       1  ZINC000124554441    0.0700
     41 H41         0.6069    3.1363   56.5192 H       1  ZINC000124554441    0.4000
     42 H42        -0.5462    5.9690   56.4408 H       1  ZINC000124554441    0.0800
     43 H43         0.7419    5.0024   55.6832 H       1  ZINC000124554441    0.0800
     44 H44        -1.1095    6.9370   54.2174 H       1  ZINC000124554441    0.0700
     45 H45         0.5817    7.2679   54.6659 H       1  ZINC000124554441    0.0900
     46 H46         0.3236    6.4890   52.2828 H       1  ZINC000124554441    0.1000
     47 H47         1.3604    5.4177   53.2599 H       1  ZINC000124554441    0.0800
     48 H48        -0.5171    2.1957   50.4542 H       1  ZINC000124554441    0.1500
     49 H49        -2.0144    0.2999   50.0069 H       1  ZINC000124554441    0.1500
     50 H50        -3.7749    4.3576   52.2163 H       1  ZINC000124554441    0.1500
     51 H51         0.1288    3.1225   54.0959 H       1  ZINC000124554441    0.0800
     52 H52        -1.5656    2.9674   53.5648 H       1  ZINC000124554441    0.1000
@<TRIPOS>BOND
     1     1     2    1
     2     1    28    1
     3     1    29    1
     4     1    30    1
     5     2     3    1
     6     2    31    1
     7     2    32    1
     8     3     4    1
     9     3    33    1
    10     3    34    1
    11     4     5    1
    12     4    35    1
    13     4    36    1
    14     5     6    1
    15     5    37    1
    16     5    38    1
    17     6     7    1
    18     6    39    1
    19     6    40    1
    20     7     8   am
    21     7    41    1
    22     8     9    2
    23     8    10    1
    24    10    11    1
    25    10    27    1
    26    10    12    1
    27    12    13    1
    28    12    42    1
    29    12    43    1
    30    13    14    1
    31    13    44    1
    32    13    45    1
    33    14    15    1
    34    14    46    1
    35    14    47    1
    36    15    16   am
    37    15    27    1
    38    16    17    2
    39    16    18    1
    40    18    26   ar
    41    18    19   ar
    42    19    20   ar
    43    19    48    1
    44    20    21   ar
    45    20    49    1
    46    21    22    1
    47    21    24   ar
    48    22    23    3
    49    24    25    1
    50    24    26   ar
    51    26    50    1
    52    27    51    1
    53    27    52    1
@<TRIPOS>SUBSTRUCTURE
     1 ZINC000124554441        1 TEMP              0 ****  ****    0 ROOT


##########                                Name:    ZINC000432253027
##########                DOCK_Rotatable_Bonds:                   8
##########                         Heavy_Atoms:                  26
##########                    Molecular_Weight:             401.436
##########                DOCK_Rotatable_Bonds:                   8
##########                       Formal_Charge:         1.19209e-07
##########                     HBond_Acceptors:                  11
##########                        HBond_Donors:                   0
##########                         Heavy_Atoms:                  26
##########                          Grid_Score:          -33.244133
##########                     Grid_vdw_energy:          -31.946592
##########                      Grid_es_energy:           -1.297539
##########           Internal_energy_repulsive:            6.635187

@<TRIPOS>MOLECULE
ZINC000432253027
 40 42 1 0 0
SMALL
USER_CHARGES


@<TRIPOS>ATOM
      1 C1        -11.1524    0.8281   56.1457 C.3     1  ZINC000432253027    0.0300
      2 O2         -9.8014    0.3648   56.0970 O.3     1  ZINC000432253027   -0.3100
      3 C3         -9.2988   -0.1907   57.2299 C.ar    1  ZINC000432253027    0.1500
      4 C4         -9.7405   -1.4347   57.6494 C.ar    1  ZINC000432253027   -0.2100
      5 C5         -9.2286   -1.9990   58.8029 C.ar    1  ZINC000432253027   -0.0600
      6 C6         -8.2732   -1.3274   59.5454 C.ar    1  ZINC000432253027   -0.1600
      7 C7         -7.8229   -0.0876   59.1407 C.ar    1  ZINC000432253027   -0.0300
      8 C8         -8.3277    0.4894   57.9754 C.ar    1  ZINC000432253027   -0.0600
      9 C9         -7.8497    1.8172   57.5367 C.2     1  ZINC000432253027    0.1200
     10 N10        -7.2165    2.0632   56.4254 N.2     1  ZINC000432253027   -0.4600
     11 C11        -6.8676    3.3097   56.2007 C.2     1  ZINC000432253027    0.0800
     12 C12        -6.1317    3.7220   54.9520 C.3     1  ZINC000432253027   -0.0200
     13 S13        -6.4537    2.5175   53.6345 S.3     1  ZINC000432253027   -0.1700
     14 C14        -5.1823    2.9111   52.4019 C.3     1  ZINC000432253027   -0.0300
     15 C15        -4.9683    1.7204   51.5033 C.2     1  ZINC000432253027    0.2100
     16 N16        -5.8300    0.7657   51.2505 N.2     1  ZINC000432253027   -0.2700
     17 N17        -5.2751   -0.0665   50.4385 N.2     1  ZINC000432253027   -0.0500
     18 N18        -4.0817    0.3325   50.1666 N.2     1  ZINC000432253027   -0.0700
     19 N19        -3.8570    1.4340   50.7999 N.pl3   1  ZINC000432253027   -0.3100
     20 C20        -2.6213    2.2201   50.7670 C.3     1  ZINC000432253027    0.0700
     21 C21        -1.8690    1.9335   49.4659 C.3     1  ZINC000432253027    0.4300
     22 F22        -2.7671    1.9558   48.3934 F       1  ZINC000432253027   -0.1500
     23 F23        -0.8857    2.9094   49.2711 F       1  ZINC000432253027   -0.1700
     24 F24        -1.2665    0.6733   49.5435 F       1  ZINC000432253027   -0.1700
     25 C25        -7.2064    4.1896   57.1481 C.2     1  ZINC000432253027   -0.2500
     26 S26        -8.0516    3.3227   58.4290 S.3     1  ZINC000432253027    0.1600
     27 H27       -11.4277    1.2478   55.1782 H       1  ZINC000432253027    0.1000
     28 H28       -11.8141   -0.0054   56.3817 H       1  ZINC000432253027    0.0600
     29 H29       -11.2460    1.5951   56.9145 H       1  ZINC000432253027    0.0600
     30 H30       -10.4859   -1.9643   57.0748 H       1  ZINC000432253027    0.1400
     31 H31        -9.5764   -2.9688   59.1267 H       1  ZINC000432253027    0.1300
     32 H32        -7.8786   -1.7756   60.4453 H       1  ZINC000432253027    0.1300
     33 H33        -7.0774    0.4335   59.7231 H       1  ZINC000432253027    0.1400
     34 H34        -6.4757    4.7069   54.6360 H       1  ZINC000432253027    0.1000
     35 H35        -5.0617    3.7595   55.1565 H       1  ZINC000432253027    0.1100
     36 H36        -5.5067    3.7633   51.8048 H       1  ZINC000432253027    0.1100
     37 H37        -4.2489    3.1565   52.9084 H       1  ZINC000432253027    0.1300
     38 H38        -2.8642    3.2814   50.8201 H       1  ZINC000432253027    0.1500
     39 H39        -1.9948    1.9478   51.6165 H       1  ZINC000432253027    0.1600
     40 H40        -7.0010    5.2497   57.1300 H       1  ZINC000432253027    0.1800
@<TRIPOS>BOND
     1     1     2    1
     2     1    27    1
     3     1    28    1
     4     1    29    1
     5     2     3    1
     6     3     8   ar
     7     3     4   ar
     8     4     5   ar
     9     4    30    1
    10     5     6   ar
    11     5    31    1
    12     6     7   ar
    13     6    32    1
    14     7     8   ar
    15     7    33    1
    16     8     9    1
    17     9    26    1
    18     9    10    2
    19    10    11    1
    20    11    12    1
    21    11    25    2
    22    12    13    1
    23    12    34    1
    24    12    35    1
    25    13    14    1
    26    14    15    1
    27    14    36    1
    28    14    37    1
    29    15    19    1
    30    15    16    2
    31    16    17    1
    32    17    18    2
    33    18    19    1
    34    19    20    1
    35    20    21    1
    36    20    38    1
    37    20    39    1
    38    21    22    1
    39    21    23    1
    40    21    24    1
    41    25    26    1
    42    25    40    1
@<TRIPOS>SUBSTRUCTURE
     1 ZINC000432253027        1 TEMP              0 ****  ****    0 ROOT


##########                                Name:    ZINC000637608314
##########                DOCK_Rotatable_Bonds:                   9
##########                         Heavy_Atoms:                  28
##########                    Molecular_Weight:             387.479
##########                DOCK_Rotatable_Bonds:                   9
##########                       Formal_Charge:           0.0499991
##########                     HBond_Acceptors:                   7
##########                        HBond_Donors:                   2
##########                         Heavy_Atoms:                  28
##########                          Grid_Score:          -33.241871
##########                     Grid_vdw_energy:          -31.309986
##########                      Grid_es_energy:           -1.931883
##########           Internal_energy_repulsive:           19.459503

@<TRIPOS>MOLECULE
ZINC000637608314
 57 59 1 0 0
SMALL
USER_CHARGES


@<TRIPOS>ATOM
      1 C1         -6.9703    2.6855   52.6310 C.3     1  ZINC000637608314   -0.1400
      2 C2         -5.7925    3.6570   52.5310 C.3     1  ZINC000637608314   -0.0400
      3 C3         -6.2217    4.9002   51.7493 C.3     1  ZINC000637608314   -0.1500
      4 C4         -5.3486    4.0665   53.9368 C.3     1  ZINC000637608314   -0.1500
      5 C5         -4.6469    2.9860   51.8181 C.2     1  ZINC000637608314    0.1900
      6 C6         -3.4506    3.6135   51.7344 C.2     1  ZINC000637608314   -0.2400
      7 C7         -2.3805    2.9950   51.0727 C.2     1  ZINC000637608314    0.0200
      8 C8         -2.5621    1.7617   50.5192 C.2     1  ZINC000637608314   -0.2400
      9 C9         -1.4285    1.0742   49.8028 C.3     1  ZINC000637608314    0.2100
     10 N10        -1.1013    1.8153   48.5821 N.am    1  ZINC000637608314   -0.7300
     11 C11        -0.0293    1.4615   47.8459 C.2     1  ZINC000637608314    0.7100
     12 O12         0.6672    0.5283   48.1956 O.2     1  ZINC000637608314   -0.5900
     13 N13         0.2707    2.1423   46.7220 N.am    1  ZINC000637608314   -0.6200
     14 C14         1.4350    1.7567   45.9208 C.3     1  ZINC000637608314    0.2000
     15 C15         0.9768    1.0026   44.6993 C.2     1  ZINC000637608314   -0.0400
     16 C16        -0.2523    0.4912   44.5056 C.2     1  ZINC000637608314   -0.1900
     17 C17        -0.2424   -0.1285   43.2348 C.2     1  ZINC000637608314   -0.2200
     18 C18         0.9920    0.0412   42.7279 C.2     1  ZINC000637608314   -0.0300
     19 O19         1.7244    0.7319   43.6169 O.3     1  ZINC000637608314   -0.1700
     20 C20        -0.5674    3.2680   46.3018 C.3     1  ZINC000637608314    0.1300
     21 C21        -0.2220    4.5014   47.1386 C.3     1  ZINC000637608314    0.0700
     22 H22        -1.1226    4.8893   47.6143 H       1  ZINC000637608314    0.0900
     23 C23         0.4035    5.5874   46.2372 C.3     1  ZINC000637608314   -0.1500
     24 C24         1.5186    6.1697   47.1480 C.3     1  ZINC000637608314   -0.1600
     25 C25         1.9556    4.9022   47.9247 C.3     1  ZINC000637608314    0.0500
     26 O26         0.7448    4.1557   48.1374 O.3     1  ZINC000637608314   -0.3800
     27 C27        -3.8174    1.1384   50.6246 C.2     1  ZINC000637608314    0.5300
     28 O28        -3.9934    0.0346   50.1342 O.2     1  ZINC000637608314   -0.5400
     29 N29        -4.8241    1.7560   51.2714 N.am    1  ZINC000637608314   -0.6000
     30 H30        -7.2866    2.3937   51.6295 H       1  ZINC000637608314    0.0700
     31 H31        -6.6645    1.7999   53.1879 H       1  ZINC000637608314    0.0700
     32 H32        -7.7989    3.1708   53.1467 H       1  ZINC000637608314    0.0700
     33 H33        -7.0503    5.3855   52.2651 H       1  ZINC000637608314    0.0700
     34 H34        -5.3827    5.5924   51.6782 H       1  ZINC000637608314    0.0600
     35 H35        -6.5381    4.6084   50.7479 H       1  ZINC000637608314    0.0700
     36 H36        -5.0427    3.1809   54.4937 H       1  ZINC000637608314    0.0700
     37 H37        -4.5095    4.7586   53.8656 H       1  ZINC000637608314    0.0600
     38 H38        -6.1772    4.5519   54.4525 H       1  ZINC000637608314    0.0700
     39 H39        -3.3205    4.5901   52.1768 H       1  ZINC000637608314    0.1500
     40 H40        -1.4232    3.4898   51.0017 H       1  ZINC000637608314    0.1400
     41 H41        -0.5544    1.0415   50.4532 H       1  ZINC000637608314    0.0800
     42 H42        -1.7260    0.0585   49.5424 H       1  ZINC000637608314    0.0800
     43 H43        -1.6563    2.5606   48.3038 H       1  ZINC000637608314    0.4000
     44 H44         1.9770    2.6511   45.6135 H       1  ZINC000637608314    0.1200
     45 H45         2.0909    1.1209   46.5155 H       1  ZINC000637608314    0.0900
     46 H46        -1.0863    0.5435   45.1897 H       1  ZINC000637608314    0.1500
     47 H47        -1.0675   -0.6403   42.7619 H       1  ZINC000637608314    0.1500
     48 H48         1.3347   -0.3142   41.7675 H       1  ZINC000637608314    0.2000
     49 H49        -0.3871    3.4816   45.2482 H       1  ZINC000637608314    0.0800
     50 H50        -1.6172    3.0131   46.4464 H       1  ZINC000637608314    0.1000
     51 H51         0.8296    5.1457   45.3363 H       1  ZINC000637608314    0.0800
     52 H52        -0.3307    6.3527   45.9853 H       1  ZINC000637608314    0.0900
     53 H53         2.3409    6.5702   46.5550 H       1  ZINC000637608314    0.0800
     54 H54         1.1190    6.9261   47.8234 H       1  ZINC000637608314    0.0800
     55 H55         2.6608    4.3197   47.3319 H       1  ZINC000637608314    0.0600
     56 H56         2.4013    5.1789   48.8802 H       1  ZINC000637608314    0.0800
     57 H57        -5.6880    1.3203   51.3410 H       1  ZINC000637608314    0.4100
@<TRIPOS>BOND
     1     1     2    1
     2     1    30    1
     3     1    31    1
     4     1    32    1
     5     2     3    1
     6     2     4    1
     7     2     5    1
     8     3    33    1
     9     3    34    1
    10     3    35    1
    11     4    36    1
    12     4    37    1
    13     4    38    1
    14     5    29    1
    15     5     6    2
    16     6     7    1
    17     6    39    1
    18     7     8    2
    19     7    40    1
    20     8     9    1
    21     8    27    1
    22     9    10    1
    23     9    41    1
    24     9    42    1
    25    10    11   am
    26    10    43    1
    27    11    12    2
    28    11    13   am
    29    13    14    1
    30    13    20    1
    31    14    15    1
    32    14    44    1
    33    14    45    1
    34    15    19    1
    35    15    16    2
    36    16    17    1
    37    16    46    1
    38    17    18    2
    39    17    47    1
    40    18    19    1
    41    18    48    1
    42    20    21    1
    43    20    49    1
    44    20    50    1
    45    21    22    1
    46    21    26    1
    47    21    23    1
    48    23    24    1
    49    23    51    1
    50    23    52    1
    51    24    25    1
    52    24    53    1
    53    24    54    1
    54    25    26    1
    55    25    55    1
    56    25    56    1
    57    27    28    2
    58    27    29   am
    59    29    57    1
@<TRIPOS>SUBSTRUCTURE
     1 ZINC000637608314        1 TEMP              0 ****  ****    0 ROOT


##########                                Name:    ZINC001039825450
##########                DOCK_Rotatable_Bonds:                   8
##########                         Heavy_Atoms:                  24
##########                    Molecular_Weight:             337.339
##########                DOCK_Rotatable_Bonds:                   8
##########                       Formal_Charge:           0.0100001
##########                     HBond_Acceptors:                  11
##########                        HBond_Donors:                   4
##########                         Heavy_Atoms:                  24
##########                          Grid_Score:          -33.222298
##########                     Grid_vdw_energy:          -32.529305
##########                      Grid_es_energy:           -0.692994
##########           Internal_energy_repulsive:            6.212390

@<TRIPOS>MOLECULE
ZINC001039825450
 43 45 1 0 0
SMALL
USER_CHARGES


@<TRIPOS>ATOM
      1 O1         -1.0939    2.8462   45.2960 O.2     1  ZINC001039825450   -0.5100
      2 C2         -0.8845    1.7269   45.7134 C.2     1  ZINC001039825450    0.5000
      3 C3         -1.0108    0.5426   44.7901 C.3     1  ZINC001039825450    0.1300
      4 N4          0.2119    0.4116   43.9939 N.pl3   1  ZINC001039825450   -0.1500
      5 N5          0.2698   -0.1260   42.8270 N.2     1  ZINC001039825450   -0.2800
      6 C6          1.5121   -0.0783   42.4020 C.2     1  ZINC001039825450   -0.0200
      7 C7          2.2404    0.5450   43.4179 C.2     1  ZINC001039825450   -0.0200
      8 N8          1.3726    0.8235   44.3641 N.2     1  ZINC001039825450   -0.2800
      9 N9         -0.5334    1.5426   47.0015 N.am    1  ZINC001039825450   -0.7300
     10 C10        -0.4107    2.6939   47.8991 C.3     1  ZINC001039825450    0.1000
     11 C11        -0.7770    2.2716   49.3233 C.3     1  ZINC001039825450    0.1100
     12 O12         0.0237    1.1645   49.7421 O.3     1  ZINC001039825450   -0.5400
     13 C13        -0.6284    3.4640   50.3049 C.3     1  ZINC001039825450   -0.1600
     14 C14        -1.6328    3.0768   51.4189 C.3     1  ZINC001039825450    0.1000
     15 N15        -2.7624    2.4510   50.7077 N.am    1  ZINC001039825450   -0.6100
     16 C16        -4.0291    2.3721   51.1609 C.2     1  ZINC001039825450    0.5200
     17 O17        -4.3171    2.8421   52.2413 O.2     1  ZINC001039825450   -0.5100
     18 C18        -5.0879    1.6997   50.3254 C.3     1  ZINC001039825450    0.1100
     19 H19        -4.6531    1.2961   49.4110 H       1  ZINC001039825450    0.1200
     20 C20        -6.2237    2.6873   49.9943 C.3     1  ZINC001039825450    0.1100
     21 N21        -7.4112    2.0784   50.6120 N.am    1  ZINC001039825450   -0.7400
     22 C22        -7.0584    0.9319   51.2080 C.2     1  ZINC001039825450    0.7100
     23 O23        -7.8486    0.2211   51.7984 O.2     1  ZINC001039825450   -0.5800
     24 N24        -5.7536    0.6369   51.0933 N.am    1  ZINC001039825450   -0.7200
     25 C25        -2.2782    1.9278   49.4218 C.3     1  ZINC001039825450    0.1200
     26 H26        -1.1598   -0.3628   45.3786 H       1  ZINC001039825450    0.1400
     27 H27        -1.8628    0.6887   44.1261 H       1  ZINC001039825450    0.1400
     28 H28         1.8923   -0.4460   41.4604 H       1  ZINC001039825450    0.2000
     29 H29         3.2991    0.7582   43.4227 H       1  ZINC001039825450    0.2000
     30 H30        -0.3621    0.6477   47.3343 H       1  ZINC001039825450    0.4000
     31 H31         0.6156    3.0605   47.8815 H       1  ZINC001039825450    0.0900
     32 H32        -1.0847    3.4848   47.5700 H       1  ZINC001039825450    0.0900
     33 H33        -0.1561    0.3450   49.2612 H       1  ZINC001039825450    0.3800
     34 H34         0.3868    3.5228   50.6973 H       1  ZINC001039825450    0.0900
     35 H35        -0.9160    4.4008   49.8278 H       1  ZINC001039825450    0.0900
     36 H36        -1.1784    2.3660   52.1090 H       1  ZINC001039825450    0.0800
     37 H37        -1.9670    3.9657   51.9539 H       1  ZINC001039825450    0.0800
     38 H38        -6.0218    3.6639   50.4342 H       1  ZINC001039825450    0.0900
     39 H39        -6.3545    2.7721   48.9155 H       1  ZINC001039825450    0.1000
     40 H40        -8.3076    2.4483   50.5911 H       1  ZINC001039825450    0.4400
     41 H41        -5.3209   -0.1500   51.4602 H       1  ZINC001039825450    0.4400
     42 H42        -2.8209    2.3987   48.6021 H       1  ZINC001039825450    0.0900
     43 H43        -2.4141    0.8470   49.3865 H       1  ZINC001039825450    0.0900
@<TRIPOS>BOND
     1     1     2    2
     2     2     3    1
     3     2     9   am
     4     3     4    1
     5     3    26    1
     6     3    27    1
     7     4     8    1
     8     4     5    1
     9     5     6    2
    10     6     7    1
    11     6    28    1
    12     7     8    2
    13     7    29    1
    14     9    10    1
    15     9    30    1
    16    10    11    1
    17    10    31    1
    18    10    32    1
    19    11    25    1
    20    11    12    1
    21    11    13    1
    22    12    33    1
    23    13    14    1
    24    13    34    1
    25    13    35    1
    26    14    15    1
    27    14    36    1
    28    14    37    1
    29    15    16   am
    30    15    25    1
    31    16    17    2
    32    16    18    1
    33    18    19    1
    34    18    24    1
    35    18    20    1
    36    20    21    1
    37    20    38    1
    38    20    39    1
    39    21    22   am
    40    21    40    1
    41    22    23    2
    42    22    24   am
    43    24    41    1
    44    25    42    1
    45    25    43    1
@<TRIPOS>SUBSTRUCTURE
     1 ZINC001039825450        1 TEMP              0 ****  ****    0 ROOT


##########                                Name:    ZINC000512239524
##########                DOCK_Rotatable_Bonds:                   9
##########                         Heavy_Atoms:                  31
##########                    Molecular_Weight:             424.518
##########                DOCK_Rotatable_Bonds:                   9
##########                       Formal_Charge:          0.00999919
##########                     HBond_Acceptors:                   7
##########                        HBond_Donors:                   1
##########                         Heavy_Atoms:                  31
##########                          Grid_Score:          -33.206467
##########                     Grid_vdw_energy:          -32.256744
##########                      Grid_es_energy:           -0.949723
##########           Internal_energy_repulsive:           27.244734

@<TRIPOS>MOLECULE
ZINC000512239524
 60 63 1 0 0
SMALL
USER_CHARGES


@<TRIPOS>ATOM
      1 C1          0.5868    2.1138   50.5646 C.3     1  ZINC000512239524   -0.1600
      2 C2         -0.6246    1.9558   49.6435 C.3     1  ZINC000512239524    0.2000
      3 H3         -0.6597    0.9356   49.2613 H       1  ZINC000512239524    0.1100
      4 N4         -1.8498    2.2381   50.3953 N.am    1  ZINC000512239524   -0.7400
      5 C5         -2.8329    1.3179   50.4519 C.2     1  ZINC000512239524    0.7100
      6 O6         -2.7029    0.2533   49.8789 O.2     1  ZINC000512239524   -0.5800
      7 N7         -3.9601    1.5776   51.1436 N.am    1  ZINC000512239524   -0.6300
      8 C8         -4.1343    2.8616   51.8362 C.3     1  ZINC000512239524    0.1300
      9 C9         -5.4542    3.4923   51.3810 C.3     1  ZINC000512239524   -0.1100
     10 C10        -6.5947    2.4969   51.6060 C.3     1  ZINC000512239524   -0.1000
     11 C11        -7.8995    3.1265   51.1909 C.2     1  ZINC000512239524    0.5300
     12 O12        -7.9292    3.9023   50.2591 O.2     1  ZINC000512239524   -0.5300
     13 N13        -9.0335    2.8274   51.8551 N.am    1  ZINC000512239524   -0.5800
     14 C14        -8.9973    1.8916   52.9818 C.3     1  ZINC000512239524    0.1500
     15 C15       -10.3902    1.3895   53.2626 C.ar    1  ZINC000512239524   -0.1100
     16 C16       -10.9374    0.3931   52.4761 C.ar    1  ZINC000512239524   -0.0900
     17 C17       -12.2150   -0.0674   52.7338 C.ar    1  ZINC000512239524   -0.1200
     18 C18       -12.9453    0.4681   53.7781 C.ar    1  ZINC000512239524   -0.1100
     19 C19       -12.3978    1.4640   54.5651 C.ar    1  ZINC000512239524   -0.1200
     20 C20       -11.1185    1.9215   54.3102 C.ar    1  ZINC000512239524   -0.1100
     21 C21       -10.3021    3.4380   51.4505 C.3     1  ZINC000512239524    0.0700
     22 C22       -11.0249    4.3116   52.4776 C.3     1  ZINC000512239524   -0.1900
     23 C23       -10.3310    4.9578   51.2769 C.3     1  ZINC000512239524   -0.2000
     24 C24        -6.3476    1.2382   50.7713 C.3     1  ZINC000512239524   -0.1400
     25 C25        -5.0405    0.5844   51.2145 C.3     1  ZINC000512239524    0.1100
     26 C26        -0.5086    2.9202   48.4913 C.ar    1  ZINC000512239524   -0.0800
     27 C27        -0.4695    4.2879   48.7120 C.ar    1  ZINC000512239524   -0.1400
     28 C28        -0.3623    5.1424   47.6307 C.ar    1  ZINC000512239524    0.1000
     29 N29        -0.2979    4.6711   46.4010 N.ar    1  ZINC000512239524   -0.4600
     30 C30        -0.3323    3.3767   46.1513 C.ar    1  ZINC000512239524    0.0800
     31 C31        -0.4328    2.4597   47.1833 C.ar    1  ZINC000512239524    0.0600
     32 F32        -0.4675    1.1349   46.9209 F       1  ZINC000512239524   -0.1200
     33 H33         0.5030    1.4163   51.3980 H       1  ZINC000512239524    0.0700
     34 H34         1.4985    1.9037   50.0052 H       1  ZINC000512239524    0.0700
     35 H35         0.6220    3.1339   50.9468 H       1  ZINC000512239524    0.0600
     36 H36        -1.9535    3.0874   50.8524 H       1  ZINC000512239524    0.3900
     37 H37        -4.1610    2.6953   52.9131 H       1  ZINC000512239524    0.0700
     38 H38        -3.3068    3.5262   51.5875 H       1  ZINC000512239524    0.1000
     39 H39        -5.6425    4.3979   51.9576 H       1  ZINC000512239524    0.0900
     40 H40        -5.3920    3.7412   50.3216 H       1  ZINC000512239524    0.0800
     41 H41        -6.6402    2.2293   52.6616 H       1  ZINC000512239524    0.1000
     42 H42        -8.3508    1.0497   52.7341 H       1  ZINC000512239524    0.0900
     43 H43        -8.6096    2.4003   53.8643 H       1  ZINC000512239524    0.1000
     44 H44       -10.3668   -0.0254   51.6602 H       1  ZINC000512239524    0.1300
     45 H45       -12.6428   -0.8455   52.1189 H       1  ZINC000512239524    0.1200
     46 H46       -13.9439    0.1088   53.9789 H       1  ZINC000512239524    0.1200
     47 H47       -12.9685    1.8827   55.3809 H       1  ZINC000512239524    0.1200
     48 H48       -10.6908    2.6995   54.9251 H       1  ZINC000512239524    0.1200
     49 H49       -10.9161    2.8426   50.7747 H       1  ZINC000512239524    0.1300
     50 H50       -12.1148    4.2910   52.4779 H       1  ZINC000512239524    0.1100
     51 H51       -10.5566    4.4320   53.4544 H       1  ZINC000512239524    0.1000
     52 H52        -9.4061    5.5034   51.4639 H       1  ZINC000512239524    0.1100
     53 H53       -10.9642    5.3623   50.4873 H       1  ZINC000512239524    0.1000
     54 H54        -7.1720    0.5395   50.9138 H       1  ZINC000512239524    0.0900
     55 H55        -6.2772    1.5084   49.7176 H       1  ZINC000512239524    0.0700
     56 H56        -4.8107   -0.2548   50.5580 H       1  ZINC000512239524    0.0800
     57 H57        -5.1380    0.2319   52.2413 H       1  ZINC000512239524    0.0800
     58 H58        -0.5224    4.6813   49.7164 H       1  ZINC000512239524    0.1400
     59 H59        -0.3312    6.2094   47.7951 H       1  ZINC000512239524    0.1700
     60 H60        -0.2775    3.0281   45.1306 H       1  ZINC000512239524    0.1700
@<TRIPOS>BOND
     1     1     2    1
     2     1    33    1
     3     1    34    1
     4     1    35    1
     5     2     3    1
     6     2     4    1
     7     2    26    1
     8     4     5   am
     9     4    36    1
    10     5     6    2
    11     5     7   am
    12     7    25    1
    13     7     8    1
    14     8     9    1
    15     8    37    1
    16     8    38    1
    17     9    10    1
    18     9    39    1
    19     9    40    1
    20    10    11    1
    21    10    24    1
    22    10    41    1
    23    11    12    2
    24    11    13   am
    25    13    14    1
    26    13    21    1
    27    14    15    1
    28    14    42    1
    29    14    43    1
    30    15    20   ar
    31    15    16   ar
    32    16    17   ar
    33    16    44    1
    34    17    18   ar
    35    17    45    1
    36    18    19   ar
    37    18    46    1
    38    19    20   ar
    39    19    47    1
    40    20    48    1
    41    21    23    1
    42    21    22    1
    43    21    49    1
    44    22    23    1
    45    22    50    1
    46    22    51    1
    47    23    52    1
    48    23    53    1
    49    24    25    1
    50    24    54    1
    51    24    55    1
    52    25    56    1
    53    25    57    1
    54    26    31   ar
    55    26    27   ar
    56    27    28   ar
    57    27    58    1
    58    28    29   ar
    59    28    59    1
    60    29    30   ar
    61    30    31   ar
    62    30    60    1
    63    31    32    1
@<TRIPOS>SUBSTRUCTURE
     1 ZINC000512239524        1 TEMP              0 ****  ****    0 ROOT


##########                                Name:    ZINC000533131987
##########                DOCK_Rotatable_Bonds:                  11
##########                         Heavy_Atoms:                  30
##########                    Molecular_Weight:             419.403
##########                DOCK_Rotatable_Bonds:                  11
##########                       Formal_Charge:                0.01
##########                     HBond_Acceptors:                   9
##########                        HBond_Donors:                   3
##########                         Heavy_Atoms:                  30
##########                          Grid_Score:          -33.174335
##########                     Grid_vdw_energy:          -31.981318
##########                      Grid_es_energy:           -1.193019
##########           Internal_energy_repulsive:           27.992573

@<TRIPOS>MOLECULE
ZINC000533131987
 50 52 1 0 0
SMALL
USER_CHARGES


@<TRIPOS>ATOM
      1 O1         -2.3758    0.7017   49.9846 O.2     1  ZINC000533131987   -0.5700
      2 C2         -2.4212    1.9084   50.1273 C.2     1  ZINC000533131987    0.7100
      3 N3         -3.4745    2.4742   50.7494 N.am    1  ZINC000533131987   -0.7400
      4 C4         -4.5674    1.6360   51.2484 C.3     1  ZINC000533131987    0.1400
      5 C5         -5.8873    2.0944   50.6250 C.3     1  ZINC000533131987   -0.0900
      6 H6         -5.7028    2.4687   49.6179 H       1  ZINC000533131987    0.0900
      7 C7         -6.8580    0.9136   50.5604 C.3     1  ZINC000533131987    0.0800
      8 O8         -6.5981    0.0233   51.6475 O.3     1  ZINC000533131987   -0.5600
      9 C9         -6.4953    3.2083   51.4797 C.3     1  ZINC000533131987   -0.0900
     10 C10        -7.7091    3.7691   50.7844 C.ar    1  ZINC000533131987    0.0000
     11 C11        -7.5933    4.3027   49.5147 C.ar    1  ZINC000533131987   -0.1100
     12 C12        -8.7069    4.8172   48.8770 C.ar    1  ZINC000533131987   -0.0800
     13 C13        -9.9360    4.7974   49.5088 C.ar    1  ZINC000533131987   -0.1300
     14 C14       -10.0520    4.2629   50.7786 C.ar    1  ZINC000533131987   -0.0700
     15 C15        -8.9396    3.7447   51.4145 C.ar    1  ZINC000533131987   -0.1700
     16 C16        -9.0660    3.1618   52.7985 C.3     1  ZINC000533131987    0.5100
     17 F17        -8.7117    1.8088   52.7689 F       1  ZINC000533131987   -0.1800
     18 F18        -8.2158    3.8475   53.6728 F       1  ZINC000533131987   -0.1700
     19 F19       -10.3880    3.2883   53.2387 F       1  ZINC000533131987   -0.1800
     20 N20        -1.4158    2.6795   49.6682 N.am    1  ZINC000533131987   -0.6900
     21 C21        -0.3219    2.0919   49.0222 C.ar    1  ZINC000533131987    0.1600
     22 C22         0.8478    1.8386   49.7281 C.ar    1  ZINC000533131987   -0.1000
     23 C23         1.9311    1.2583   49.0946 C.ar    1  ZINC000533131987   -0.1000
     24 C24         1.8578    0.9269   47.7572 C.ar    1  ZINC000533131987   -0.1000
     25 C25         0.6869    1.1775   47.0392 C.ar    1  ZINC000533131987    0.0000
     26 C26         0.6055    0.8230   45.6062 C.2     1  ZINC000533131987    0.2300
     27 N27         1.6075    0.8224   44.7590 N.2     1  ZINC000533131987   -0.4700
     28 C28         1.1509    0.4463   43.5548 C.2     1  ZINC000533131987   -0.0400
     29 C29        -0.1688    0.2104   43.6697 C.2     1  ZINC000533131987   -0.0700
     30 O30        -0.5063    0.4416   44.9539 O.3     1  ZINC000533131987   -0.2000
     31 C31        -0.4076    1.7574   47.6796 C.ar    1  ZINC000533131987   -0.1000
     32 H32        -3.5088    3.4365   50.8666 H       1  ZINC000533131987    0.4000
     33 H33        -4.3801    0.5965   50.9792 H       1  ZINC000533131987    0.0700
     34 H34        -4.6276    1.7251   52.3331 H       1  ZINC000533131987    0.0800
     35 H35        -7.8820    1.2809   50.6283 H       1  ZINC000533131987    0.0400
     36 H36        -6.7237    0.3841   49.6171 H       1  ZINC000533131987    0.0600
     37 H37        -6.2342    0.4561   52.4321 H       1  ZINC000533131987    0.3800
     38 H38        -6.7863    2.8045   52.4494 H       1  ZINC000533131987    0.0800
     39 H39        -5.7597    4.0000   51.6216 H       1  ZINC000533131987    0.0900
     40 H40        -6.6329    4.3181   49.0210 H       1  ZINC000533131987    0.1300
     41 H41        -8.6163    5.2348   47.8851 H       1  ZINC000533131987    0.1300
     42 H42       -10.8057    5.2000   49.0109 H       1  ZINC000533131987    0.1300
     43 H43       -11.0123    4.2477   51.2725 H       1  ZINC000533131987    0.1300
     44 H44        -1.4501    3.6418   49.7856 H       1  ZINC000533131987    0.4100
     45 H45         0.9111    2.0961   50.7751 H       1  ZINC000533131987    0.1500
     46 H46         2.8377    1.0641   49.6483 H       1  ZINC000533131987    0.1400
     47 H47         2.7063    0.4742   47.2658 H       1  ZINC000533131987    0.1300
     48 H48         1.7380    0.3502   42.6535 H       1  ZINC000533131987    0.1900
     49 H49        -0.8333   -0.1089   42.8806 H       1  ZINC000533131987    0.2200
     50 H50        -1.3159    1.9536   47.1294 H       1  ZINC000533131987    0.1400
@<TRIPOS>BOND
     1     1     2    2
     2     2     3   am
     3     2    20   am
     4     3     4    1
     5     3    32    1
     6     4     5    1
     7     4    33    1
     8     4    34    1
     9     5     6    1
    10     5     7    1
    11     5     9    1
    12     7     8    1
    13     7    35    1
    14     7    36    1
    15     8    37    1
    16     9    10    1
    17     9    38    1
    18     9    39    1
    19    10    15   ar
    20    10    11   ar
    21    11    12   ar
    22    11    40    1
    23    12    13   ar
    24    12    41    1
    25    13    14   ar
    26    13    42    1
    27    14    15   ar
    28    14    43    1
    29    15    16    1
    30    16    17    1
    31    16    18    1
    32    16    19    1
    33    20    21    1
    34    20    44    1
    35    21    31   ar
    36    21    22   ar
    37    22    23   ar
    38    22    45    1
    39    23    24   ar
    40    23    46    1
    41    24    25   ar
    42    24    47    1
    43    25    26    1
    44    25    31   ar
    45    26    30    1
    46    26    27    2
    47    27    28    1
    48    28    29    2
    49    28    48    1
    50    29    30    1
    51    29    49    1
    52    31    50    1
@<TRIPOS>SUBSTRUCTURE
     1 ZINC000533131987        1 TEMP              0 ****  ****    0 ROOT


##########                                Name:    ZINC000762187039
##########                DOCK_Rotatable_Bonds:                   9
##########                         Heavy_Atoms:                  25
##########                    Molecular_Weight:             354.473
##########                DOCK_Rotatable_Bonds:                   9
##########                       Formal_Charge:        -1.78814e-07
##########                     HBond_Acceptors:                   5
##########                        HBond_Donors:                   1
##########                         Heavy_Atoms:                  25
##########                          Grid_Score:          -33.156052
##########                     Grid_vdw_energy:          -33.100246
##########                      Grid_es_energy:           -0.055806
##########           Internal_energy_repulsive:            9.318186

@<TRIPOS>MOLECULE
ZINC000762187039
 47 49 1 0 0
SMALL
USER_CHARGES


@<TRIPOS>ATOM
      1 C1          1.2963    5.8718   47.1386 C.3     1  ZINC000762187039   -0.0800
      2 C2          0.6007    5.1585   46.0078 C.2     1  ZINC000762187039    0.0500
      3 N3         -0.0117    4.0278   46.1136 N.2     1  ZINC000762187039   -0.4700
      4 C4         -0.5691    3.5420   45.0227 C.2     1  ZINC000762187039    0.0700
      5 C5         -1.3155    2.2331   45.0022 C.3     1  ZINC000762187039   -0.0300
      6 C6         -0.3635    1.1094   44.5879 C.3     1  ZINC000762187039   -0.1300
      7 C7          0.6677    0.9011   45.6670 C.2     1  ZINC000762187039    0.5200
      8 O8          1.8199    0.6691   45.3679 O.2     1  ZINC000762187039   -0.5400
      9 N9          0.3093    0.9725   46.9642 N.am    1  ZINC000762187039   -0.7300
     10 C10         1.3114    0.7684   48.0132 C.3     1  ZINC000762187039    0.1200
     11 C11         0.9111    1.5575   49.2615 C.3     1  ZINC000762187039   -0.1300
     12 C12        -0.5435    1.2445   49.6180 C.3     1  ZINC000762187039    0.0600
     13 O13        -0.8808    1.8863   50.8494 O.3     1  ZINC000762187039   -0.3100
     14 C14        -2.2028    2.0440   51.1209 C.ar    1  ZINC000762187039    0.1300
     15 C15        -2.6437    3.2131   51.7481 C.ar    1  ZINC000762187039   -0.1900
     16 C16        -3.9606    3.4001   52.0328 C.ar    1  ZINC000762187039   -0.0600
     17 C17        -4.8949    2.4065   51.6931 C.ar    1  ZINC000762187039   -0.0800
     18 C18        -6.2629    2.5669   51.9722 C.ar    1  ZINC000762187039   -0.0900
     19 C19        -7.1402    1.5847   51.6290 C.ar    1  ZINC000762187039   -0.1300
     20 C20        -6.7032    0.4184   51.0034 C.ar    1  ZINC000762187039   -0.1000
     21 C21        -5.3865    0.2277   50.7175 C.ar    1  ZINC000762187039   -0.1200
     22 C22        -4.4503    1.2202   51.0567 C.ar    1  ZINC000762187039   -0.0100
     23 C23        -3.0845    1.0605   50.7725 C.ar    1  ZINC000762187039   -0.1500
     24 C24        -0.4185    4.3055   43.9363 C.2     1  ZINC000762187039   -0.2600
     25 S25         0.5026    5.7339   44.4009 S.3     1  ZINC000762187039    0.1200
     26 H26         1.7236    6.8049   46.7714 H       1  ZINC000762187039    0.0800
     27 H27         0.5774    6.0876   47.9290 H       1  ZINC000762187039    0.0900
     28 H28         2.0911    5.2388   47.5332 H       1  ZINC000762187039    0.0900
     29 H29        -1.7121    2.0253   45.9960 H       1  ZINC000762187039    0.0900
     30 H30        -2.1373    2.2946   44.2887 H       1  ZINC000762187039    0.0900
     31 H31        -0.9290    0.1889   44.4432 H       1  ZINC000762187039    0.0900
     32 H32         0.1346    1.3801   43.6568 H       1  ZINC000762187039    0.1000
     33 H33        -0.6120    1.1592   47.2033 H       1  ZINC000762187039    0.4000
     34 H34         1.3707   -0.2923   48.2575 H       1  ZINC000762187039    0.0700
     35 H35         2.2827    1.1148   47.6603 H       1  ZINC000762187039    0.0700
     36 H36         1.5577    1.2753   50.0924 H       1  ZINC000762187039    0.0800
     37 H37         1.0157    2.6246   49.0657 H       1  ZINC000762187039    0.0800
     38 H38        -1.1981    1.6097   48.8267 H       1  ZINC000762187039    0.0700
     39 H39        -0.6678    0.1668   49.7239 H       1  ZINC000762187039    0.0700
     40 H40        -1.9285    3.9787   52.0105 H       1  ZINC000762187039    0.1300
     41 H41        -4.2868    4.3080   52.5182 H       1  ZINC000762187039    0.1300
     42 H42        -6.6162    3.4652   52.4567 H       1  ZINC000762187039    0.1300
     43 H43        -8.1909    1.7108   51.8451 H       1  ZINC000762187039    0.1200
     44 H44        -7.4204   -0.3458   50.7420 H       1  ZINC000762187039    0.1200
     45 H45        -5.0624   -0.6811   50.2324 H       1  ZINC000762187039    0.1300
     46 H46        -2.7326    0.1637   50.2844 H       1  ZINC000762187039    0.1300
     47 H47        -0.7976    4.0874   42.9489 H       1  ZINC000762187039    0.1800
@<TRIPOS>BOND
     1     1     2    1
     2     1    26    1
     3     1    27    1
     4     1    28    1
     5     2    25    1
     6     2     3    2
     7     3     4    1
     8     4     5    1
     9     4    24    2
    10     5     6    1
    11     5    29    1
    12     5    30    1
    13     6     7    1
    14     6    31    1
    15     6    32    1
    16     7     8    2
    17     7     9   am
    18     9    10    1
    19     9    33    1
    20    10    11    1
    21    10    34    1
    22    10    35    1
    23    11    12    1
    24    11    36    1
    25    11    37    1
    26    12    13    1
    27    12    38    1
    28    12    39    1
    29    13    14    1
    30    14    23   ar
    31    14    15   ar
    32    15    16   ar
    33    15    40    1
    34    16    17   ar
    35    16    41    1
    36    17    22   ar
    37    17    18   ar
    38    18    19   ar
    39    18    42    1
    40    19    20   ar
    41    19    43    1
    42    20    21   ar
    43    20    44    1
    44    21    22   ar
    45    21    45    1
    46    22    23   ar
    47    23    46    1
    48    24    25    1
    49    24    47    1
@<TRIPOS>SUBSTRUCTURE
     1 ZINC000762187039        1 TEMP              0 ****  ****    0 ROOT


##########                                Name:    ZINC000772422035
##########                DOCK_Rotatable_Bonds:                  10
##########                         Heavy_Atoms:                  25
##########                    Molecular_Weight:             348.399
##########                DOCK_Rotatable_Bonds:                  10
##########                       Formal_Charge:          0.00999987
##########                     HBond_Acceptors:                   7
##########                        HBond_Donors:                   0
##########                         Heavy_Atoms:                  25
##########                          Grid_Score:          -33.154186
##########                     Grid_vdw_energy:          -33.577770
##########                      Grid_es_energy:            0.423584
##########           Internal_energy_repulsive:           13.485352

@<TRIPOS>MOLECULE
ZINC000772422035
 49 50 1 0 0
SMALL
USER_CHARGES


@<TRIPOS>ATOM
      1 C1          0.0931   -0.0895   61.7622 C.3     1  ZINC000772422035    0.0300
      2 O2          0.5250    0.1421   60.4198 O.3     1  ZINC000772422035   -0.3900
      3 C3          1.1412    1.4156   60.2190 C.3     1  ZINC000772422035    0.0600
      4 C4          1.5179    1.5730   58.7445 C.3     1  ZINC000772422035    0.0700
      5 O5          0.3405    1.4831   57.9398 O.3     1  ZINC000772422035   -0.3000
      6 C6         -0.3928    2.6151   57.7924 C.ar    1  ZINC000772422035    0.3300
      7 C7         -1.5950    2.5702   57.0986 C.ar    1  ZINC000772422035   -0.1700
      8 C8         -2.3337    3.7321   56.9555 C.ar    1  ZINC000772422035   -0.0200
      9 C9         -3.6435    3.7257   56.2102 C.3     1  ZINC000772422035    0.1100
     10 O10        -3.3881    3.6374   54.7835 O.3     1  ZINC000772422035   -0.3500
     11 C11        -4.2460    4.2735   53.9704 C.2     1  ZINC000772422035    0.4700
     12 O12        -4.1201    5.4579   53.7670 O.2     1  ZINC000772422035   -0.5000
     13 C13        -5.3659    3.5106   53.3112 C.3     1  ZINC000772422035   -0.1100
     14 C14        -5.1180    3.4425   51.8029 C.3     1  ZINC000772422035    0.0000
     15 H15        -4.0998    3.7663   51.5872 H       1  ZINC000772422035    0.1000
     16 C16        -6.1083    4.3589   51.0814 C.3     1  ZINC000772422035   -0.1500
     17 C17        -5.3061    2.0253   51.3264 C.2     1  ZINC000772422035   -0.2000
     18 C18        -6.4286    1.2692   51.3806 C.2     1  ZINC000772422035   -0.0200
     19 C19        -7.7665    1.6793   51.9396 C.3     1  ZINC000772422035   -0.0800
     20 O20        -6.1142    0.0840   50.8389 O.3     1  ZINC000772422035    0.1000
     21 N21        -4.9606    0.0520   50.4782 N.2     1  ZINC000772422035   -0.3600
     22 C22        -4.3534    1.1793   50.7136 C.2     1  ZINC000772422035    0.0300
     23 C23        -2.9170    1.5129   50.4032 C.3     1  ZINC000772422035   -0.0800
     24 C24        -1.8408    4.9029   57.5142 C.ar    1  ZINC000772422035   -0.1900
     25 C25        -0.6374    4.8741   58.1911 C.ar    1  ZINC000772422035    0.1400
     26 N26         0.0415    3.7497   58.3157 N.ar    1  ZINC000772422035   -0.5300
     27 H27        -0.3635   -1.0768   61.8318 H       1  ZINC000772422035    0.0900
     28 H28         0.9501   -0.0374   62.4337 H       1  ZINC000772422035    0.0400
     29 H29        -0.6368    0.6691   62.0450 H       1  ZINC000772422035    0.0400
     30 H30         0.4448    2.2049   60.5023 H       1  ZINC000772422035    0.0600
     31 H31         2.0391    1.4857   60.8329 H       1  ZINC000772422035    0.0700
     32 H32         1.9892    2.5440   58.5916 H       1  ZINC000772422035    0.0800
     33 H33         2.2132    0.7830   58.4609 H       1  ZINC000772422035    0.0800
     34 H34        -1.9487    1.6414   56.6761 H       1  ZINC000772422035    0.1400
     35 H35        -4.2375    2.8683   56.5267 H       1  ZINC000772422035    0.0900
     36 H36        -4.1886    4.6447   56.4255 H       1  ZINC000772422035    0.0900
     37 H37        -5.4065    2.5005   53.7187 H       1  ZINC000772422035    0.1100
     38 H38        -6.3120    4.0174   53.5013 H       1  ZINC000772422035    0.1100
     39 H39        -7.1233    4.1165   51.3963 H       1  ZINC000772422035    0.0600
     40 H40        -5.8892    5.3974   51.3293 H       1  ZINC000772422035    0.0800
     41 H41        -6.0178    4.2154   50.0047 H       1  ZINC000772422035    0.0600
     42 H42        -8.3330    2.2095   51.1740 H       1  ZINC000772422035    0.0900
     43 H43        -8.3179    0.7919   52.2504 H       1  ZINC000772422035    0.0900
     44 H44        -7.6164    2.3332   52.7987 H       1  ZINC000772422035    0.0900
     45 H45        -2.8604    2.0094   49.4346 H       1  ZINC000772422035    0.0800
     46 H46        -2.5229    2.1747   51.1744 H       1  ZINC000772422035    0.0800
     47 H47        -2.3285    0.5957   50.3763 H       1  ZINC000772422035    0.0800
     48 H48        -2.3922    5.8269   57.4204 H       1  ZINC000772422035    0.1400
     49 H49        -0.2495    5.7824   58.6279 H       1  ZINC000772422035    0.1700
@<TRIPOS>BOND
     1     1     2    1
     2     1    27    1
     3     1    28    1
     4     1    29    1
     5     2     3    1
     6     3     4    1
     7     3    30    1
     8     3    31    1
     9     4     5    1
    10     4    32    1
    11     4    33    1
    12     5     6    1
    13     6    26   ar
    14     6     7   ar
    15     7     8   ar
    16     7    34    1
    17     8     9    1
    18     8    24   ar
    19     9    10    1
    20     9    35    1
    21     9    36    1
    22    10    11    1
    23    11    12    2
    24    11    13    1
    25    13    14    1
    26    13    37    1
    27    13    38    1
    28    14    15    1
    29    14    16    1
    30    14    17    1
    31    16    39    1
    32    16    40    1
    33    16    41    1
    34    17    22    1
    35    17    18    2
    36    18    19    1
    37    18    20    1
    38    19    42    1
    39    19    43    1
    40    19    44    1
    41    20    21    1
    42    21    22    2
    43    22    23    1
    44    23    45    1
    45    23    46    1
    46    23    47    1
    47    24    25   ar
    48    24    48    1
    49    25    26   ar
    50    25    49    1
@<TRIPOS>SUBSTRUCTURE
     1 ZINC000772422035        1 TEMP              0 ****  ****    0 ROOT


##########                                Name:    ZINC000047262406
##########                DOCK_Rotatable_Bonds:                   6
##########                         Heavy_Atoms:                  28
##########                    Molecular_Weight:             417.919
##########                DOCK_Rotatable_Bonds:                   6
##########                       Formal_Charge:          -0.0100002
##########                     HBond_Acceptors:                   9
##########                        HBond_Donors:                   1
##########                         Heavy_Atoms:                  28
##########                          Grid_Score:          -33.113567
##########                     Grid_vdw_energy:          -32.327347
##########                      Grid_es_energy:           -0.786221
##########           Internal_energy_repulsive:           14.403941

@<TRIPOS>MOLECULE
ZINC000047262406
 48 51 1 0 0
SMALL
USER_CHARGES


@<TRIPOS>ATOM
      1 C1         -8.6137    4.0625   53.8227 C.3     1  ZINC000047262406   -0.1500
      2 C2         -8.7119    2.8914   52.8429 C.3     1  ZINC000047262406    0.1800
      3 H3         -9.2886    3.1958   51.9695 H       1  ZINC000047262406    0.0800
      4 C4         -9.3953    1.7293   53.5162 C.2     1  ZINC000047262406    0.1700
      5 N5        -10.3292    0.9818   52.9990 N.2     1  ZINC000047262406   -0.2500
      6 N6        -10.6844    0.0847   53.8500 N.2     1  ZINC000047262406   -0.2700
      7 C7         -9.9814    0.2306   54.9520 C.2     1  ZINC000047262406    0.2400
      8 C8        -10.0812   -0.5926   56.1665 C.2     1  ZINC000047262406   -0.1500
      9 C9         -9.3228   -0.4386   57.2867 C.2     1  ZINC000047262406   -0.0600
     10 C10        -9.6048   -1.3351   58.2937 C.2     1  ZINC000047262406   -0.1400
     11 C11       -10.5741   -2.2139   58.0184 C.2     1  ZINC000047262406   -0.1900
     12 S12       -11.2041   -1.9257   56.4024 S.3     1  ZINC000047262406    0.1700
     13 O13        -9.1472    1.2728   54.7573 O.3     1  ZINC000047262406   -0.2200
     14 N14        -7.3626    2.4897   52.4232 N.3     1  ZINC000047262406   -0.5200
     15 C15        -6.7232    3.5450   51.6271 C.3     1  ZINC000047262406    0.0500
     16 C16        -5.2731    3.1552   51.3317 C.3     1  ZINC000047262406   -0.1000
     17 C17        -5.2520    1.8290   50.5665 C.3     1  ZINC000047262406   -0.1100
     18 C18        -3.8248    1.4096   50.3251 C.2     1  ZINC000047262406    0.5100
     19 O19        -3.5532    0.2362   50.1837 O.2     1  ZINC000047262406   -0.4600
     20 N20        -2.8502    2.3388   50.2662 N.am    1  ZINC000047262406   -0.6600
     21 C21        -1.5294    1.9507   50.0429 C.ar    1  ZINC000047262406    0.3600
     22 C22        -0.5919    2.0827   51.0603 C.ar    1  ZINC000047262406   -0.2000
     23 C23         0.7155    1.6936   50.8261 C.ar    1  ZINC000047262406   -0.0400
     24 C24         1.0408    1.1836   49.5760 C.ar    1  ZINC000047262406   -0.1200
     25 Cl25        2.6658    0.6802   49.2295 Cl      1  ZINC000047262406   -0.0500
     26 C26         0.0568    1.0807   48.6107 C.ar    1  ZINC000047262406    0.1500
     27 N27        -1.1820    1.4553   48.8656 N.ar    1  ZINC000047262406   -0.4600
     28 C28        -5.9665    0.7587   51.3962 C.3     1  ZINC000047262406   -0.1100
     29 C29        -7.3964    1.2180   51.6897 C.3     1  ZINC000047262406    0.0600
     30 H30        -8.1193    4.9031   53.3357 H       1  ZINC000047262406    0.0800
     31 H31        -9.6148    4.3606   54.1341 H       1  ZINC000047262406    0.0700
     32 H32        -8.0370    3.7582   54.6961 H       1  ZINC000047262406    0.0800
     33 H33        -8.5628    0.3234   57.3781 H       1  ZINC000047262406    0.1600
     34 H34        -9.0802   -1.3289   59.2378 H       1  ZINC000047262406    0.1600
     35 H35       -10.9216   -2.9842   58.6909 H       1  ZINC000047262406    0.1800
     36 H36        -7.2639    3.6703   50.6889 H       1  ZINC000047262406    0.0400
     37 H37        -6.7412    4.4817   52.1842 H       1  ZINC000047262406    0.0900
     38 H38        -4.8034    3.9314   50.7275 H       1  ZINC000047262406    0.0800
     39 H39        -4.7282    3.0432   52.2691 H       1  ZINC000047262406    0.0900
     40 H40        -5.7622    1.9515   49.6112 H       1  ZINC000047262406    0.1000
     41 H41        -3.0675    3.2773   50.3795 H       1  ZINC000047262406    0.4200
     42 H42        -0.8797    2.4839   52.0209 H       1  ZINC000047262406    0.1500
     43 H43         1.4656    1.7848   51.5977 H       1  ZINC000047262406    0.1500
     44 H44         0.3045    0.6852   47.6367 H       1  ZINC000047262406    0.1700
     45 H45        -5.9922   -0.1772   50.8382 H       1  ZINC000047262406    0.0700
     46 H46        -5.4325    0.6091   52.3347 H       1  ZINC000047262406    0.0800
     47 H47        -7.9034    0.4645   52.2925 H       1  ZINC000047262406    0.0700
     48 H48        -7.9340    1.3542   50.7514 H       1  ZINC000047262406    0.0400
@<TRIPOS>BOND
     1     1     2    1
     2     1    30    1
     3     1    31    1
     4     1    32    1
     5     2     3    1
     6     2     4    1
     7     2    14    1
     8     4    13    1
     9     4     5    2
    10     5     6    1
    11     6     7    2
    12     7     8    1
    13     7    13    1
    14     8    12    1
    15     8     9    2
    16     9    10    1
    17     9    33    1
    18    10    11    2
    19    10    34    1
    20    11    12    1
    21    11    35    1
    22    14    29    1
    23    14    15    1
    24    15    16    1
    25    15    36    1
    26    15    37    1
    27    16    17    1
    28    16    38    1
    29    16    39    1
    30    17    18    1
    31    17    28    1
    32    17    40    1
    33    18    19    2
    34    18    20   am
    35    20    21    1
    36    20    41    1
    37    21    27   ar
    38    21    22   ar
    39    22    23   ar
    40    22    42    1
    41    23    24   ar
    42    23    43    1
    43    24    25    1
    44    24    26   ar
    45    26    27   ar
    46    26    44    1
    47    28    29    1
    48    28    45    1
    49    28    46    1
    50    29    47    1
    51    29    48    1
@<TRIPOS>SUBSTRUCTURE
     1 ZINC000047262406        1 TEMP              0 ****  ****    0 ROOT


##########                                Name:    ZINC000816269301
##########                DOCK_Rotatable_Bonds:                   7
##########                         Heavy_Atoms:                  25
##########                    Molecular_Weight:             358.784
##########                DOCK_Rotatable_Bonds:                   7
##########                       Formal_Charge:           0.0100002
##########                     HBond_Acceptors:                   8
##########                        HBond_Donors:                   1
##########                         Heavy_Atoms:                  25
##########                          Grid_Score:          -33.106747
##########                     Grid_vdw_energy:          -32.892021
##########                      Grid_es_energy:           -0.214727
##########           Internal_energy_repulsive:            3.967444

@<TRIPOS>MOLECULE
ZINC000816269301
 40 42 1 0 0
SMALL
USER_CHARGES


@<TRIPOS>ATOM
      1 C1         -7.6021    1.5864   51.8773 C.3     1  ZINC000816269301    0.1000
      2 N2         -6.3273    1.0999   51.3438 N.pl3   1  ZINC000816269301   -0.4000
      3 N3         -6.1246   -0.0671   50.5933 N.2     1  ZINC000816269301    0.0000
      4 N4         -4.8778   -0.1758   50.2960 N.2     1  ZINC000816269301   -0.2000
      5 C5         -4.1841    0.8697   50.8062 C.ar    1  ZINC000816269301   -0.0300
      6 C6         -2.8331    1.2252   50.7731 C.ar    1  ZINC000816269301    0.0500
      7 C7         -2.4148    2.3892   51.4067 C.ar    1  ZINC000816269301   -0.1400
      8 C8         -0.9897    2.7715   51.3757 C.2     1  ZINC000816269301    0.5200
      9 O9         -0.3518    2.8221   52.4084 O.2     1  ZINC000816269301   -0.5000
     10 O10        -0.3961    3.0643   50.2023 O.3     1  ZINC000816269301   -0.3500
     11 C11        -0.7481    4.3295   49.5829 C.3     1  ZINC000816269301    0.0500
     12 C12         0.1266    4.5536   48.3479 C.3     1  ZINC000816269301    0.1200
     13 N13        -0.1880    3.5416   47.3364 N.am    1  ZINC000816269301   -0.7200
     14 C14         0.7457    3.1758   46.4358 C.2     1  ZINC000816269301    0.5600
     15 O15         1.8493    3.6847   46.4638 O.2     1  ZINC000816269301   -0.5300
     16 C16         0.4277    2.1563   45.4145 C.ar    1  ZINC000816269301   -0.1300
     17 C17        -0.7892    1.4735   45.4608 C.ar    1  ZINC000816269301   -0.0700
     18 C18        -1.0804    0.5231   44.5050 C.ar    1  ZINC000816269301   -0.1200
     19 C19        -0.1682    0.2454   43.5003 C.ar    1  ZINC000816269301   -0.0100
     20 Cl20       -0.5419   -0.9520   42.3001 Cl      1  ZINC000816269301   -0.0600
     21 C21         1.0408    0.9195   43.4491 C.ar    1  ZINC000816269301   -0.1200
     22 C22         1.3406    1.8760   44.3959 C.ar    1  ZINC000816269301   -0.0500
     23 C23        -3.3419    3.2023   52.0753 C.ar    1  ZINC000816269301   -0.0200
     24 C24        -4.6607    2.8607   52.1109 C.ar    1  ZINC000816269301   -0.1300
     25 C25        -5.1006    1.7012   51.4768 C.ar    1  ZINC000816269301    0.1100
     26 H26        -8.0814    2.2318   51.1411 H       1  ZINC000816269301    0.0900
     27 H27        -8.2519    0.7388   52.0952 H       1  ZINC000816269301    0.1000
     28 H28        -7.4216    2.1505   52.7923 H       1  ZINC000816269301    0.1000
     29 H29        -2.1188    0.5993   50.2587 H       1  ZINC000816269301    0.1600
     30 H30        -1.7969    4.3096   49.2866 H       1  ZINC000816269301    0.0800
     31 H31        -0.5868    5.1395   50.2943 H       1  ZINC000816269301    0.1000
     32 H32        -0.0666    5.5462   47.9409 H       1  ZINC000816269301    0.1000
     33 H33         1.1771    4.4737   48.6273 H       1  ZINC000816269301    0.0900
     34 H34        -1.0683    3.1346   47.3149 H       1  ZINC000816269301    0.4000
     35 H35        -1.5011    1.6889   46.2439 H       1  ZINC000816269301    0.1400
     36 H36        -2.0212   -0.0059   44.5400 H       1  ZINC000816269301    0.1400
     37 H37         1.7481    0.6987   42.6633 H       1  ZINC000816269301    0.1400
     38 H38         2.2834    2.4012   44.3548 H       1  ZINC000816269301    0.1500
     39 H39        -3.0082    4.1050   52.5654 H       1  ZINC000816269301    0.1500
     40 H40        -5.3672    3.4931   52.6282 H       1  ZINC000816269301    0.1400
@<TRIPOS>BOND
     1     1     2    1
     2     1    26    1
     3     1    27    1
     4     1    28    1
     5     2    25    1
     6     2     3    1
     7     3     4    2
     8     4     5    1
     9     5    25   ar
    10     5     6   ar
    11     6     7   ar
    12     6    29    1
    13     7     8    1
    14     7    23   ar
    15     8     9    2
    16     8    10    1
    17    10    11    1
    18    11    12    1
    19    11    30    1
    20    11    31    1
    21    12    13    1
    22    12    32    1
    23    12    33    1
    24    13    14   am
    25    13    34    1
    26    14    15    2
    27    14    16    1
    28    16    22   ar
    29    16    17   ar
    30    17    18   ar
    31    17    35    1
    32    18    19   ar
    33    18    36    1
    34    19    20    1
    35    19    21   ar
    36    21    22   ar
    37    21    37    1
    38    22    38    1
    39    23    24   ar
    40    23    39    1
    41    24    25   ar
    42    24    40    1
@<TRIPOS>SUBSTRUCTURE
     1 ZINC000816269301        1 TEMP              0 ****  ****    0 ROOT


##########                                Name:    ZINC000541000201
##########                DOCK_Rotatable_Bonds:                  10
##########                         Heavy_Atoms:                  30
##########                    Molecular_Weight:             420.413
##########                DOCK_Rotatable_Bonds:                  10
##########                       Formal_Charge:               -0.03
##########                     HBond_Acceptors:                   9
##########                        HBond_Donors:                   1
##########                         Heavy_Atoms:                  30
##########                          Grid_Score:          -33.080368
##########                     Grid_vdw_energy:          -32.082455
##########                      Grid_es_energy:           -0.997914
##########           Internal_energy_repulsive:           14.214651

@<TRIPOS>MOLECULE
ZINC000541000201
 52 54 1 0 0
SMALL
USER_CHARGES


@<TRIPOS>ATOM
      1 C1          0.0246    1.4618   49.5889 C.3     1  ZINC000541000201    0.0400
      2 O2         -0.8161    2.1328   50.5644 O.3     1  ZINC000541000201   -0.3500
      3 C3         -2.0948    2.3510   50.2193 C.2     1  ZINC000541000201    0.4500
      4 O4         -2.5209    1.9184   49.1747 O.2     1  ZINC000541000201   -0.4900
      5 C5         -2.9989    3.1356   51.1347 C.3     1  ZINC000541000201    0.2100
      6 H6         -3.1107    4.1503   50.7527 H       1  ZINC000541000201    0.1400
      7 N7         -2.4141    3.1809   52.4772 N.am    1  ZINC000541000201   -0.7100
      8 C8         -2.6661    4.2284   53.2870 C.2     1  ZINC000541000201    0.5800
      9 O9         -3.3800    5.1350   52.9040 O.2     1  ZINC000541000201   -0.5300
     10 C10        -2.0755    4.2749   54.6390 C.ar    1  ZINC000541000201   -0.2300
     11 C11        -2.6810    5.0290   55.6547 C.ar    1  ZINC000541000201    0.0200
     12 C12        -2.0911    5.0413   56.9021 C.ar    1  ZINC000541000201   -0.2000
     13 C13        -0.9250    4.3116   57.1104 C.ar    1  ZINC000541000201    0.3500
     14 O14        -0.3415    4.3200   58.3333 O.3     1  ZINC000541000201   -0.2900
     15 C15         0.5843    3.2691   58.6175 C.3     1  ZINC000541000201    0.0800
     16 C16         1.2325    3.4792   60.0084 C.3     1  ZINC000541000201   -0.1400
     17 C17         1.6778    2.0476   60.3977 C.3     1  ZINC000541000201   -0.1200
     18 C18         0.5425    1.1431   59.8755 C.3     1  ZINC000541000201   -0.1200
     19 C19        -0.1528    1.9198   58.7435 C.3     1  ZINC000541000201   -0.1200
     20 N20        -0.3773    3.6086   56.1307 N.ar    1  ZINC000541000201   -0.5400
     21 C21        -0.9093    3.5645   54.9273 C.ar    1  ZINC000541000201    0.1800
     22 C22        -4.3498    2.4707   51.1974 C.ar    1  ZINC000541000201   -0.1300
     23 C23        -5.4968    3.2416   51.2445 C.ar    1  ZINC000541000201   -0.0700
     24 C24        -6.7364    2.6345   51.3021 C.ar    1  ZINC000541000201   -0.1300
     25 C25        -6.8298    1.2503   51.3121 C.ar    1  ZINC000541000201    0.1200
     26 O26        -8.0482    0.6509   51.3682 O.3     1  ZINC000541000201   -0.3200
     27 C27        -9.0599    1.3083   52.1338 C.3     1  ZINC000541000201    0.4100
     28 F28       -10.1840    0.4809   52.2293 F       1  ZINC000541000201   -0.2000
     29 F29        -8.5712    1.5809   53.4161 F       1  ZINC000541000201   -0.2000
     30 C30        -5.6775    0.4793   51.2642 C.ar    1  ZINC000541000201   -0.1900
     31 C31        -4.4405    1.0912   51.2020 C.ar    1  ZINC000541000201   -0.0500
     32 H32         1.0305    1.3484   49.9931 H       1  ZINC000541000201    0.1000
     33 H33        -0.3906    0.4788   49.3664 H       1  ZINC000541000201    0.0600
     34 H34         0.0649    2.0546   48.6751 H       1  ZINC000541000201    0.0600
     35 H35        -1.8455    2.4570   52.7832 H       1  ZINC000541000201    0.4100
     36 H36        -3.5863    5.5866   55.4651 H       1  ZINC000541000201    0.1600
     37 H37        -2.5297    5.6114   57.7079 H       1  ZINC000541000201    0.1500
     38 H38         1.3487    3.2153   57.8424 H       1  ZINC000541000201    0.1000
     39 H39         2.0924    4.1452   59.9372 H       1  ZINC000541000201    0.0700
     40 H40         0.5026    3.8638   60.7207 H       1  ZINC000541000201    0.0800
     41 H41         2.6204    1.7959   59.9117 H       1  ZINC000541000201    0.0700
     42 H42         1.7697    1.9578   61.4802 H       1  ZINC000541000201    0.0700
     43 H43         0.9553    0.2109   59.4899 H       1  ZINC000541000201    0.0700
     44 H44        -0.1672    0.9349   60.6760 H       1  ZINC000541000201    0.0700
     45 H45        -1.1999    2.0883   58.9948 H       1  ZINC000541000201    0.0800
     46 H46        -0.0774    1.3644   57.8087 H       1  ZINC000541000201    0.0700
     47 H47        -0.4340    2.9798   54.1536 H       1  ZINC000541000201    0.1600
     48 H48        -5.4235    4.3190   51.2366 H       1  ZINC000541000201    0.1300
     49 H49        -7.6319    3.2370   51.3396 H       1  ZINC000541000201    0.1400
     50 H50        -9.3368    2.2421   51.6444 H       1  ZINC000541000201    0.1900
     51 H51        -5.7477   -0.5984   51.2723 H       1  ZINC000541000201    0.1400
     52 H52        -3.5432    0.4913   51.1643 H       1  ZINC000541000201    0.1400
@<TRIPOS>BOND
     1     1     2    1
     2     1    32    1
     3     1    33    1
     4     1    34    1
     5     2     3    1
     6     3     4    2
     7     3     5    1
     8     5     6    1
     9     5     7    1
    10     5    22    1
    11     7     8   am
    12     7    35    1
    13     8     9    2
    14     8    10    1
    15    10    21   ar
    16    10    11   ar
    17    11    12   ar
    18    11    36    1
    19    12    13   ar
    20    12    37    1
    21    13    14    1
    22    13    20   ar
    23    14    15    1
    24    15    19    1
    25    15    16    1
    26    15    38    1
    27    16    17    1
    28    16    39    1
    29    16    40    1
    30    17    18    1
    31    17    41    1
    32    17    42    1
    33    18    19    1
    34    18    43    1
    35    18    44    1
    36    19    45    1
    37    19    46    1
    38    20    21   ar
    39    21    47    1
    40    22    31   ar
    41    22    23   ar
    42    23    24   ar
    43    23    48    1
    44    24    25   ar
    45    24    49    1
    46    25    26    1
    47    25    30   ar
    48    26    27    1
    49    27    28    1
    50    27    29    1
    51    27    50    1
    52    30    31   ar
    53    30    51    1
    54    31    52    1
@<TRIPOS>SUBSTRUCTURE
     1 ZINC000541000201        1 TEMP              0 ****  ****    0 ROOT


##########                                Name:    ZINC000600609084
##########                DOCK_Rotatable_Bonds:                   8
##########                         Heavy_Atoms:                  30
##########                    Molecular_Weight:             422.548
##########                DOCK_Rotatable_Bonds:                   8
##########                       Formal_Charge:           0.0100005
##########                     HBond_Acceptors:                   6
##########                        HBond_Donors:                   2
##########                         Heavy_Atoms:                  30
##########                          Grid_Score:          -33.072498
##########                     Grid_vdw_energy:          -33.432156
##########                      Grid_es_energy:            0.359658
##########           Internal_energy_repulsive:           18.673983

@<TRIPOS>MOLECULE
ZINC000600609084
 56 59 1 0 0
SMALL
USER_CHARGES


@<TRIPOS>ATOM
      1 O1         -1.0664    2.3799   45.0453 O.2     1  ZINC000600609084   -0.5300
      2 C2          0.0727    2.0700   45.3237 C.2     1  ZINC000600609084    0.5200
      3 C3          0.3449    1.2008   46.5243 C.3     1  ZINC000600609084   -0.1500
      4 C4         -0.4070    1.7547   47.7361 C.3     1  ZINC000600609084    0.1300
      5 N5          0.2135    1.2559   48.9658 N.am    1  ZINC000600609084   -1.1200
      6 S6          0.0271    2.0895   50.3846 S.o2    1  ZINC000600609084    2.7000
      7 O7          0.6062    1.2843   51.4022 O.2     1  ZINC000600609084   -0.9600
      8 O8          0.4373    3.4246   50.1223 O.2     1  ZINC000600609084   -0.9500
      9 C9         -1.7000    2.1577   50.7264 C.ar    1  ZINC000600609084   -0.6700
     10 C10        -2.2307    3.2804   51.3582 C.ar    1  ZINC000600609084   -0.0400
     11 C11        -3.5605    3.3650   51.6367 C.ar    1  ZINC000600609084   -0.1200
     12 C12        -4.4135    2.3061   51.2830 C.ar    1  ZINC000600609084   -0.0100
     13 C13        -5.7917    2.3573   51.5535 C.ar    1  ZINC000600609084   -0.1200
     14 C14        -6.5874    1.3127   51.1960 C.ar    1  ZINC000600609084   -0.0900
     15 C15        -6.0565    0.1896   50.5639 C.ar    1  ZINC000600609084   -0.1200
     16 C16        -4.7269    0.1048   50.2860 C.ar    1  ZINC000600609084   -0.0900
     17 C17        -3.8736    1.1639   50.6401 C.ar    1  ZINC000600609084   -0.0800
     18 C18        -2.4969    1.1152   50.3642 C.ar    1  ZINC000600609084    0.0200
     19 N19         1.0944    2.4984   44.5563 N.am    1  ZINC000600609084   -0.7200
     20 C20         0.8297    3.3433   43.3892 C.3     1  ZINC000600609084    0.1400
     21 H21        -0.0708    3.0026   42.8784 H       1  ZINC000600609084    0.1000
     22 C22         0.6649    4.8095   43.8264 C.3     1  ZINC000600609084   -0.1300
     23 C23         1.7736    5.6096   43.1121 C.3     1  ZINC000600609084   -0.1300
     24 C24         2.8645    4.5546   42.8029 C.3     1  ZINC000600609084   -0.1200
     25 C25         2.0323    3.3029   42.4238 C.3     1  ZINC000600609084   -0.0700
     26 H26         1.6944    3.3683   41.3896 H       1  ZINC000600609084    0.0900
     27 C27         2.8404    2.0485   42.6349 C.ar    1  ZINC000600609084   -0.0600
     28 C28         3.6111    1.9062   43.7737 C.ar    1  ZINC000600609084   -0.1100
     29 C29         4.3524    0.7556   43.9672 C.ar    1  ZINC000600609084   -0.1200
     30 C30         4.3226   -0.2529   43.0222 C.ar    1  ZINC000600609084   -0.1200
     31 C31         3.5513   -0.1109   41.8839 C.ar    1  ZINC000600609084   -0.1200
     32 C32         2.8067    1.0378   41.6924 C.ar    1  ZINC000600609084   -0.1100
     33 H33         0.0077    0.1844   46.3210 H       1  ZINC000600609084    0.1000
     34 H34         1.4148    1.1938   46.7327 H       1  ZINC000600609084    0.1000
     35 H35        -0.3644    2.8439   47.7235 H       1  ZINC000600609084    0.0900
     36 H36        -1.4473    1.4316   47.6972 H       1  ZINC000600609084    0.0800
     37 H37         0.7336    0.4372   48.9491 H       1  ZINC000600609084    0.4200
     38 H38        -1.5772    4.0956   51.6316 H       1  ZINC000600609084    0.1400
     39 H39        -3.9578    4.2413   52.1273 H       1  ZINC000600609084    0.1400
     40 H40        -6.2172    3.2210   52.0430 H       1  ZINC000600609084    0.1300
     41 H41        -7.6460    1.3544   51.4054 H       1  ZINC000600609084    0.1300
     42 H42        -6.7100   -0.6258   50.2911 H       1  ZINC000600609084    0.1300
     43 H43        -4.3296   -0.7719   49.7962 H       1  ZINC000600609084    0.1300
     44 H44        -2.0723    0.2534   49.8707 H       1  ZINC000600609084    0.1500
     45 H45         2.0050    2.2471   44.7767 H       1  ZINC000600609084    0.4000
     46 H46        -0.3153    5.1804   43.5271 H       1  ZINC000600609084    0.0800
     47 H47         0.7818    4.8922   44.9071 H       1  ZINC000600609084    0.0700
     48 H48         1.3937    6.0474   42.1890 H       1  ZINC000600609084    0.0700
     49 H49         2.1680    6.3850   43.7690 H       1  ZINC000600609084    0.0700
     50 H50         3.4846    4.8741   41.9653 H       1  ZINC000600609084    0.0700
     51 H51         3.4748    4.3602   43.6848 H       1  ZINC000600609084    0.0700
     52 H52         3.6342    2.6941   44.5119 H       1  ZINC000600609084    0.1200
     53 H53         4.9550    0.6448   44.8565 H       1  ZINC000600609084    0.1200
     54 H54         4.9025   -1.1515   43.1731 H       1  ZINC000600609084    0.1200
     55 H55         3.5285   -0.8987   41.1454 H       1  ZINC000600609084    0.1200
     56 H56         2.2041    1.1487   40.8030 H       1  ZINC000600609084    0.1200
@<TRIPOS>BOND
     1     1     2    2
     2     2     3    1
     3     2    19   am
     4     3     4    1
     5     3    33    1
     6     3    34    1
     7     4     5    1
     8     4    35    1
     9     4    36    1
    10     5     6   am
    11     5    37    1
    12     6     7    2
    13     6     8    2
    14     6     9    1
    15     9    18   ar
    16     9    10   ar
    17    10    11   ar
    18    10    38    1
    19    11    12   ar
    20    11    39    1
    21    12    17   ar
    22    12    13   ar
    23    13    14   ar
    24    13    40    1
    25    14    15   ar
    26    14    41    1
    27    15    16   ar
    28    15    42    1
    29    16    17   ar
    30    16    43    1
    31    17    18   ar
    32    18    44    1
    33    19    20    1
    34    19    45    1
    35    20    21    1
    36    20    25    1
    37    20    22    1
    38    22    23    1
    39    22    46    1
    40    22    47    1
    41    23    24    1
    42    23    48    1
    43    23    49    1
    44    24    25    1
    45    24    50    1
    46    24    51    1
    47    25    26    1
    48    25    27    1
    49    27    32   ar
    50    27    28   ar
    51    28    29   ar
    52    28    52    1
    53    29    30   ar
    54    29    53    1
    55    30    31   ar
    56    30    54    1
    57    31    32   ar
    58    31    55    1
    59    32    56    1
@<TRIPOS>SUBSTRUCTURE
     1 ZINC000600609084        1 TEMP              0 ****  ****    0 ROOT


##########                                Name:    ZINC001045463759
##########                DOCK_Rotatable_Bonds:                   6
##########                         Heavy_Atoms:                  24
##########                    Molecular_Weight:             336.385
##########                DOCK_Rotatable_Bonds:                   6
##########                       Formal_Charge:          1.3411e-07
##########                     HBond_Acceptors:                   7
##########                        HBond_Donors:                   2
##########                         Heavy_Atoms:                  24
##########                          Grid_Score:          -33.071800
##########                     Grid_vdw_energy:          -31.290096
##########                      Grid_es_energy:           -1.781703
##########           Internal_energy_repulsive:            6.170577

@<TRIPOS>MOLECULE
ZINC001045463759
 46 49 1 0 0
SMALL
USER_CHARGES


@<TRIPOS>ATOM
      1 O1          3.4621    0.6385   48.7523 O.2     1  ZINC001045463759   -0.5100
      2 C2          2.9031    1.3740   49.5381 C.2     1  ZINC001045463759    0.5400
      3 N3          1.7226    1.9365   49.2119 N.am    1  ZINC001045463759   -0.7200
      4 C4          1.1176    1.6644   47.9057 C.3     1  ZINC001045463759    0.1400
      5 H5          1.3091    0.6287   47.6253 H       1  ZINC001045463759    0.1000
      6 C6          1.7265    2.5976   46.8573 C.3     1  ZINC001045463759   -0.1300
      7 C7          1.0947    2.3134   45.4931 C.3     1  ZINC001045463759   -0.1200
      8 C8         -0.4149    2.5499   45.5710 C.3     1  ZINC001045463759   -0.1200
      9 C9         -1.0239    1.6167   46.6195 C.3     1  ZINC001045463759   -0.1300
     10 C10        -0.3920    1.9008   47.9836 C.3     1  ZINC001045463759    0.1500
     11 H11        -0.5835    2.9367   48.2640 H       1  ZINC001045463759    0.0900
     12 N12        -0.9751    1.0074   48.9875 N.pl3   1  ZINC001045463759   -0.7100
     13 C13        -1.9364    1.4837   49.8641 C.ar    1  ZINC001045463759    0.4400
     14 C14        -1.6863    2.6135   50.6454 C.ar    1  ZINC001045463759   -0.3000
     15 C15        -2.6766    3.0491   51.5039 C.ar    1  ZINC001045463759    0.1800
     16 N16        -3.8231    2.3861   51.5581 N.ar    1  ZINC001045463759   -0.5600
     17 C17        -4.0286    1.3227   50.8073 C.ar    1  ZINC001045463759    0.4000
     18 C18        -5.3485    0.6018   50.9037 C.3     1  ZINC001045463759   -0.1100
     19 C19        -6.5126    1.3446   51.5624 C.3     1  ZINC001045463759   -0.1500
     20 C20        -6.5037    1.1257   50.0482 C.3     1  ZINC001045463759   -0.1500
     21 N21        -3.1143    0.8755   49.9707 N.ar    1  ZINC001045463759   -0.5700
     22 C22         3.5254    1.6539   50.8818 C.3     1  ZINC001045463759   -0.2000
     23 H23         4.2748    2.4453   50.8971 H       1  ZINC001045463759    0.1500
     24 C24         2.6374    1.4977   52.1179 C.3     1  ZINC001045463759   -0.1500
     25 C25         3.7314    0.4676   51.8258 C.3     1  ZINC001045463759    0.2300
     26 F26         3.3272   -0.7939   51.3758 F       1  ZINC001045463759   -0.1400
     27 F27         4.8668    0.4818   52.6430 F       1  ZINC001045463759   -0.1500
     28 H28         1.2736    2.5216   49.8419 H       1  ZINC001045463759    0.4000
     29 H29         1.5350    3.6333   47.1377 H       1  ZINC001045463759    0.0700
     30 H30         2.8020    2.4291   46.8017 H       1  ZINC001045463759    0.0800
     31 H31         1.5285    2.9782   44.7461 H       1  ZINC001045463759    0.0700
     32 H32         1.2863    1.2777   45.2126 H       1  ZINC001045463759    0.0700
     33 H33        -0.6064    3.5856   45.8514 H       1  ZINC001045463759    0.0700
     34 H34        -0.8650    2.3474   44.5992 H       1  ZINC001045463759    0.0700
     35 H35        -2.0993    1.7851   46.6750 H       1  ZINC001045463759    0.0700
     36 H36        -0.8323    0.5810   46.3390 H       1  ZINC001045463759    0.0700
     37 H37        -0.6881    0.0822   49.0386 H       1  ZINC001045463759    0.4100
     38 H38        -0.7419    3.1336   50.5804 H       1  ZINC001045463759    0.1400
     39 H39        -2.5187    3.9192   52.1240 H       1  ZINC001045463759    0.1700
     40 H40        -5.2857   -0.4751   51.0594 H       1  ZINC001045463759    0.1300
     41 H41        -7.2159    0.7563   52.1519 H       1  ZINC001045463759    0.1000
     42 H42        -6.3238    2.3547   51.9261 H       1  ZINC001045463759    0.1100
     43 H43        -6.3090    1.9918   49.4157 H       1  ZINC001045463759    0.1000
     44 H44        -7.2011    0.3936   49.6414 H       1  ZINC001045463759    0.1000
     45 H45         2.8029    2.1861   52.9466 H       1  ZINC001045463759    0.1400
     46 H46         1.6031    1.1925   51.9593 H       1  ZINC001045463759    0.1300
@<TRIPOS>BOND
     1     1     2    2
     2     2     3   am
     3     2    22    1
     4     3     4    1
     5     3    28    1
     6     4     5    1
     7     4    10    1
     8     4     6    1
     9     6     7    1
    10     6    29    1
    11     6    30    1
    12     7     8    1
    13     7    31    1
    14     7    32    1
    15     8     9    1
    16     8    33    1
    17     8    34    1
    18     9    10    1
    19     9    35    1
    20     9    36    1
    21    10    11    1
    22    10    12    1
    23    12    13    1
    24    12    37    1
    25    13    21   ar
    26    13    14   ar
    27    14    15   ar
    28    14    38    1
    29    15    16   ar
    30    15    39    1
    31    16    17   ar
    32    17    18    1
    33    17    21   ar
    34    18    20    1
    35    18    19    1
    36    18    40    1
    37    19    20    1
    38    19    41    1
    39    19    42    1
    40    20    43    1
    41    20    44    1
    42    22    23    1
    43    22    25    1
    44    22    24    1
    45    24    25    1
    46    24    45    1
    47    24    46    1
    48    25    26    1
    49    25    27    1
@<TRIPOS>SUBSTRUCTURE
     1 ZINC001045463759        1 TEMP              0 ****  ****    0 ROOT


##########                                Name:    ZINC001105793963
##########                DOCK_Rotatable_Bonds:                   9
##########                         Heavy_Atoms:                  24
##########                    Molecular_Weight:             337.422
##########                DOCK_Rotatable_Bonds:                   9
##########                       Formal_Charge:          -0.0100003
##########                     HBond_Acceptors:                   8
##########                        HBond_Donors:                   2
##########                         Heavy_Atoms:                  24
##########                          Grid_Score:          -33.049137
##########                     Grid_vdw_energy:          -32.314941
##########                      Grid_es_energy:           -0.734195
##########           Internal_energy_repulsive:            8.937995

@<TRIPOS>MOLECULE
ZINC001105793963
 51 52 1 0 0
SMALL
USER_CHARGES


@<TRIPOS>ATOM
      1 C1         -7.7575    2.3600   52.8628 C.3     1  ZINC001105793963   -0.1500
      2 C2         -7.7923    1.8118   51.4348 C.3     1  ZINC001105793963   -0.0300
      3 C3         -6.3866    1.5303   50.9703 C.2     1  ZINC001105793963    0.1800
      4 N4         -5.2985    2.1550   51.3516 N.2     1  ZINC001105793963   -0.4800
      5 C5         -4.2908    1.5689   50.6807 C.2     1  ZINC001105793963    0.1700
      6 C6         -2.8302    1.9286   50.7721 C.3     1  ZINC001105793963    0.1500
      7 N7         -2.0357    0.9439   50.0258 N.3     1  ZINC001105793963   -0.6900
      8 C8         -0.6374    1.3778   49.9057 C.3     1  ZINC001105793963    0.0700
      9 C9         -0.4938    2.3084   48.6999 C.3     1  ZINC001105793963   -0.1000
     10 H10        -1.0316    3.2402   48.8752 H       1  ZINC001105793963    0.1000
     11 C11        -1.0192    1.6175   47.4231 C.3     1  ZINC001105793963    0.1100
     12 N12        -0.0962    2.0596   46.3520 N.am    1  ZINC001105793963   -0.6200
     13 C13        -0.4027    2.3968   45.0836 C.2     1  ZINC001105793963    0.5300
     14 O14        -1.5549    2.3570   44.7071 O.2     1  ZINC001105793963   -0.5300
     15 C15         0.6864    2.8231   44.1332 C.3     1  ZINC001105793963    0.1300
     16 H16         1.4268    3.4150   44.6710 H       1  ZINC001105793963    0.1100
     17 C17         1.3582    1.5838   43.5385 C.3     1  ZINC001105793963   -0.1600
     18 N18         0.1064    3.6286   43.0556 N.am    1  ZINC001105793963   -0.7200
     19 C19         0.3381    4.9553   43.0064 C.2     1  ZINC001105793963    0.5200
     20 C20        -0.2599    5.7843   41.8991 C.3     1  ZINC001105793963   -0.1700
     21 O21         1.0280    5.4822   43.8534 O.2     1  ZINC001105793963   -0.5500
     22 C22         1.2402    2.0471   46.9914 C.3     1  ZINC001105793963    0.1000
     23 C23         0.9957    2.5939   48.4170 C.3     1  ZINC001105793963   -0.1000
     24 H24         1.6250    2.0703   49.1367 H       1  ZINC001105793963    0.0900
     25 C25         1.2730    4.0979   48.4646 C.3     1  ZINC001105793963   -0.1500
     26 N26        -4.8079    0.6352   49.9395 N.2     1  ZINC001105793963   -0.3700
     27 O27        -6.0101    0.5927   50.0957 O.3     1  ZINC001105793963    0.0800
     28 H28        -7.2971    1.6250   53.5231 H       1  ZINC001105793963    0.0600
     29 H29        -7.1764    3.2819   52.8840 H       1  ZINC001105793963    0.0600
     30 H30        -8.7742    2.5636   53.1988 H       1  ZINC001105793963    0.0800
     31 H31        -8.3735    0.8899   51.4137 H       1  ZINC001105793963    0.1100
     32 H32        -8.2528    2.5468   50.7746 H       1  ZINC001105793963    0.1000
     33 H33        -2.6729    2.9199   50.3471 H       1  ZINC001105793963    0.1000
     34 H34        -2.5207    1.9282   51.8174 H       1  ZINC001105793963    0.0700
     35 H35        -2.0959    0.0319   50.4532 H       1  ZINC001105793963    0.3500
     36 H36        -0.3425    1.9081   50.8112 H       1  ZINC001105793963    0.0800
     37 H37         0.0032    0.5062   49.7703 H       1  ZINC001105793963    0.0400
     38 H38        -0.9812    0.5339   47.5343 H       1  ZINC001105793963    0.0700
     39 H39        -2.0367    1.9428   47.2062 H       1  ZINC001105793963    0.0900
     40 H40         2.1459    1.8922   42.8510 H       1  ZINC001105793963    0.0800
     41 H41         1.7897    0.9845   44.3402 H       1  ZINC001105793963    0.0800
     42 H42         0.6177    0.9919   43.0005 H       1  ZINC001105793963    0.0600
     43 H43        -0.4444    3.2070   42.3775 H       1  ZINC001105793963    0.4100
     44 H44        -0.8436    5.1423   41.2393 H       1  ZINC001105793963    0.0800
     45 H45        -0.9072    6.5497   42.3272 H       1  ZINC001105793963    0.1000
     46 H46         0.5384    6.2602   41.3298 H       1  ZINC001105793963    0.1000
     47 H47         1.6310    1.0305   47.0352 H       1  ZINC001105793963    0.0800
     48 H48         1.9272    2.6964   46.4489 H       1  ZINC001105793963    0.0900
     49 H49         0.6282    4.6089   47.7496 H       1  ZINC001105793963    0.0600
     50 H50         1.0717    4.4729   49.4680 H       1  ZINC001105793963    0.0600
     51 H51         2.3164    4.2832   48.2099 H       1  ZINC001105793963    0.0600
@<TRIPOS>BOND
     1     1     2    1
     2     1    28    1
     3     1    29    1
     4     1    30    1
     5     2     3    1
     6     2    31    1
     7     2    32    1
     8     3    27    1
     9     3     4    2
    10     4     5    1
    11     5     6    1
    12     5    26    2
    13     6     7    1
    14     6    33    1
    15     6    34    1
    16     7     8    1
    17     7    35    1
    18     8     9    1
    19     8    36    1
    20     8    37    1
    21     9    10    1
    22     9    23    1
    23     9    11    1
    24    11    12    1
    25    11    38    1
    26    11    39    1
    27    12    13   am
    28    12    22    1
    29    13    14    2
    30    13    15    1
    31    15    16    1
    32    15    17    1
    33    15    18    1
    34    17    40    1
    35    17    41    1
    36    17    42    1
    37    18    19   am
    38    18    43    1
    39    19    20    1
    40    19    21    2
    41    20    44    1
    42    20    45    1
    43    20    46    1
    44    22    23    1
    45    22    47    1
    46    22    48    1
    47    23    24    1
    48    23    25    1
    49    25    49    1
    50    25    50    1
    51    25    51    1
    52    26    27    1
@<TRIPOS>SUBSTRUCTURE
     1 ZINC001105793963        1 TEMP              0 ****  ****    0 ROOT


##########                                Name:    ZINC001162683355
##########                DOCK_Rotatable_Bonds:                   5
##########                         Heavy_Atoms:                  25
##########                    Molecular_Weight:             336.437
##########                DOCK_Rotatable_Bonds:                   5
##########                       Formal_Charge:          -0.0100002
##########                     HBond_Acceptors:                   5
##########                        HBond_Donors:                   1
##########                         Heavy_Atoms:                  25
##########                          Grid_Score:          -33.033974
##########                     Grid_vdw_energy:          -32.900711
##########                      Grid_es_energy:           -0.133263
##########           Internal_energy_repulsive:            8.762343

@<TRIPOS>MOLECULE
ZINC001162683355
 49 52 1 0 0
SMALL
USER_CHARGES


@<TRIPOS>ATOM
      1 C1          2.4132    1.5816   51.2999 C.3     1  ZINC001162683355    0.0200
      2 N2          1.4349    1.1509   50.2922 N.3     1  ZINC001162683355   -0.5400
      3 C3          1.9529    1.3591   48.9322 C.3     1  ZINC001162683355    0.0100
      4 C4          0.9292    0.8431   47.9174 C.3     1  ZINC001162683355    0.0600
      5 O5         -0.3200    1.5066   48.1286 O.3     1  ZINC001162683355   -0.3800
      6 C6         -0.8538    1.3244   49.4429 C.3     1  ZINC001162683355    0.0800
      7 H7         -1.0382    0.2642   49.6170 H       1  ZINC001162683355    0.0700
      8 C8         -2.1665    2.0993   49.5731 C.3     1  ZINC001162683355    0.1500
      9 N9         -2.7906    1.7899   50.8619 N.pl3   1  ZINC001162683355   -0.7300
     10 C10        -4.1291    1.4168   50.9145 C.ar    1  ZINC001162683355    0.4300
     11 C11        -5.0785    2.2983   51.4368 C.ar    1  ZINC001162683355   -0.0100
     12 C12        -6.4240    1.8891   51.4749 C.ar    1  ZINC001162683355   -0.0400
     13 C13        -6.7546    0.6173   50.9882 C.ar    1  ZINC001162683355   -0.1800
     14 C14        -5.7613   -0.1781   50.4955 C.ar    1  ZINC001162683355    0.1000
     15 N15        -4.5011    0.2280   50.4696 N.ar    1  ZINC001162683355   -0.5400
     16 C16        -7.1693    2.9989   52.0613 C.2     1  ZINC001162683355   -0.2200
     17 C17        -6.2782    3.9678   52.3374 C.2     1  ZINC001162683355    0.0800
     18 N18        -5.0262    3.5678   51.9658 N.pl3   1  ZINC001162683355   -0.4600
     19 C19        -3.8083    4.3684   52.1139 C.3     1  ZINC001162683355    0.1500
     20 C20        -3.1342    4.0211   53.4162 C.ar    1  ZINC001162683355   -0.1100
     21 C21        -3.8821    3.9102   54.5735 C.ar    1  ZINC001162683355   -0.1000
     22 C22        -3.2643    3.5873   55.7673 C.ar    1  ZINC001162683355   -0.1200
     23 C23        -1.8975    3.3845   55.8055 C.ar    1  ZINC001162683355   -0.1100
     24 C24        -1.1489    3.5006   54.6492 C.ar    1  ZINC001162683355   -0.1200
     25 C25        -1.7673    3.8191   53.4546 C.ar    1  ZINC001162683355   -0.1000
     26 C26         0.1519    1.8452   50.4731 C.3     1  ZINC001162683355    0.0300
     27 H27         2.5764    2.6557   51.2119 H       1  ZINC001162683355    0.0300
     28 H28         2.0343    1.3520   52.2957 H       1  ZINC001162683355    0.0700
     29 H29         3.3551    1.0567   51.1396 H       1  ZINC001162683355    0.0700
     30 H30         2.8900    0.8156   48.8125 H       1  ZINC001162683355    0.0900
     31 H31         2.1247    2.4228   48.7672 H       1  ZINC001162683355    0.0500
     32 H32         0.7975   -0.2310   48.0476 H       1  ZINC001162683355    0.0600
     33 H33         1.2832    1.0467   46.9068 H       1  ZINC001162683355    0.1000
     34 H34        -2.8396    1.8122   48.7653 H       1  ZINC001162683355    0.0700
     35 H35        -1.9644    3.1689   49.5147 H       1  ZINC001162683355    0.0800
     36 H36        -2.2700    1.8453   51.6785 H       1  ZINC001162683355    0.4000
     37 H37        -7.7781    0.2726   51.0025 H       1  ZINC001162683355    0.1300
     38 H38        -6.0083   -1.1595   50.1182 H       1  ZINC001162683355    0.1500
     39 H39        -8.2333    3.0335   52.2432 H       1  ZINC001162683355    0.1500
     40 H40        -6.5174    4.9214   52.7844 H       1  ZINC001162683355    0.1700
     41 H41        -4.0668    5.4274   52.1096 H       1  ZINC001162683355    0.0900
     42 H42        -3.1313    4.1563   51.2864 H       1  ZINC001162683355    0.0900
     43 H43        -4.9494    4.0724   54.5444 H       1  ZINC001162683355    0.1200
     44 H44        -3.8492    3.4963   56.6706 H       1  ZINC001162683355    0.1300
     45 H45        -1.4146    3.1348   56.7387 H       1  ZINC001162683355    0.1300
     46 H46        -0.0811    3.3421   54.6791 H       1  ZINC001162683355    0.1300
     47 H47        -1.1824    3.9099   52.5512 H       1  ZINC001162683355    0.1200
     48 H48         0.2948    2.9166   50.3326 H       1  ZINC001162683355    0.0500
     49 H49        -0.2257    1.6564   51.4780 H       1  ZINC001162683355    0.0900
@<TRIPOS>BOND
     1     1     2    1
     2     1    27    1
     3     1    28    1
     4     1    29    1
     5     2    26    1
     6     2     3    1
     7     3     4    1
     8     3    30    1
     9     3    31    1
    10     4     5    1
    11     4    32    1
    12     4    33    1
    13     5     6    1
    14     6     7    1
    15     6     8    1
    16     6    26    1
    17     8     9    1
    18     8    34    1
    19     8    35    1
    20     9    10    1
    21     9    36    1
    22    10    15   ar
    23    10    11   ar
    24    11    18    1
    25    11    12   ar
    26    12    13   ar
    27    12    16    1
    28    13    14   ar
    29    13    37    1
    30    14    15   ar
    31    14    38    1
    32    16    17    2
    33    16    39    1
    34    17    18    1
    35    17    40    1
    36    18    19    1
    37    19    20    1
    38    19    41    1
    39    19    42    1
    40    20    25   ar
    41    20    21   ar
    42    21    22   ar
    43    21    43    1
    44    22    23   ar
    45    22    44    1
    46    23    24   ar
    47    23    45    1
    48    24    25   ar
    49    24    46    1
    50    25    47    1
    51    26    48    1
    52    26    49    1
@<TRIPOS>SUBSTRUCTURE
     1 ZINC001162683355        1 TEMP              0 ****  ****    0 ROOT


##########                                Name:    ZINC001077846158
##########                DOCK_Rotatable_Bonds:                   7
##########                         Heavy_Atoms:                  24
##########                    Molecular_Weight:             350.442
##########                DOCK_Rotatable_Bonds:                   7
##########                       Formal_Charge:          -0.0600002
##########                     HBond_Acceptors:                   8
##########                        HBond_Donors:                   2
##########                         Heavy_Atoms:                  24
##########                          Grid_Score:          -33.015934
##########                     Grid_vdw_energy:          -31.314007
##########                      Grid_es_energy:           -1.701927
##########           Internal_energy_repulsive:            9.178922

@<TRIPOS>MOLECULE
ZINC001077846158
 46 48 1 0 0
SMALL
USER_CHARGES


@<TRIPOS>ATOM
      1 C1         -5.9250    0.1956   50.8227 C.3     1  ZINC001077846158   -0.0700
      2 C2         -6.1430    1.6653   50.5701 C.2     1  ZINC001077846158    0.0100
      3 C3         -5.3065    2.6604   50.9084 C.2     1  ZINC001077846158   -0.0500
      4 C4         -3.9797    2.5155   51.6083 C.3     1  ZINC001077846158    0.1300
      5 N5         -2.8926    2.6501   50.6295 N.3     1  ZINC001077846158   -0.5100
      6 C6         -1.6187    3.0221   51.2966 C.3     1  ZINC001077846158    0.0000
      7 C7         -0.5425    2.6076   50.2620 C.3     1  ZINC001077846158    0.1000
      8 H8         -0.4384    3.3679   49.4880 H       1  ZINC001077846158    0.0800
      9 O9          0.7111    2.3681   50.9047 O.3     1  ZINC001077846158   -0.5600
     10 C10        -1.1170    1.2999   49.6705 C.3     1  ZINC001077846158    0.1400
     11 H11        -0.6775    0.4349   50.1670 H       1  ZINC001077846158    0.1100
     12 N12        -0.8649    1.2402   48.2286 N.am    1  ZINC001077846158   -0.7000
     13 C13         0.3640    0.9281   47.7718 C.2     1  ZINC001077846158    0.6000
     14 O14         1.2641    0.6972   48.5566 O.2     1  ZINC001077846158   -0.5300
     15 C15         0.6171    0.8663   46.3223 C.2     1  ZINC001077846158    0.0100
     16 C16        -0.3306    1.1294   45.3946 C.2     1  ZINC001077846158   -0.2300
     17 S17         0.3554    0.9509   43.8391 S.3     1  ZINC001077846158    0.2300
     18 C18         1.8671    0.5357   44.5165 C.2     1  ZINC001077846158    0.0300
     19 C19         3.1027    0.2043   43.7199 C.3     1  ZINC001077846158   -0.0200
     20 C20         2.9541    0.7493   42.2980 C.3     1  ZINC001077846158   -0.1500
     21 C21         4.3244    0.8412   44.3852 C.3     1  ZINC001077846158   -0.1500
     22 N22         1.8058    0.5505   45.8014 N.2     1  ZINC001077846158   -0.4500
     23 C23        -2.6303    1.3637   49.9484 C.3     1  ZINC001077846158    0.0300
     24 O24        -5.8767    3.8123   50.5040 O.3     1  ZINC001077846158   -0.2100
     25 C25        -7.0469    3.5085   49.9272 C.2     1  ZINC001077846158    0.1800
     26 N26        -7.2074    2.2163   49.9604 N.2     1  ZINC001077846158   -0.4900
     27 H27        -5.3973   -0.2441   49.9762 H       1  ZINC001077846158    0.0800
     28 H28        -5.3313    0.0665   51.7276 H       1  ZINC001077846158    0.0700
     29 H29        -6.8886   -0.2986   50.9466 H       1  ZINC001077846158    0.0700
     30 H30        -3.8829    3.2914   52.3677 H       1  ZINC001077846158    0.0600
     31 H31        -3.9235    1.5351   52.0812 H       1  ZINC001077846158    0.1100
     32 H32        -1.5808    4.0955   51.4821 H       1  ZINC001077846158    0.0900
     33 H33        -1.4941    2.4655   52.2254 H       1  ZINC001077846158    0.0600
     34 H34         0.7465    1.5389   51.4011 H       1  ZINC001077846158    0.3900
     35 H35        -1.5824    1.4253   47.6027 H       1  ZINC001077846158    0.4100
     36 H36        -1.3535    1.4067   45.6023 H       1  ZINC001077846158    0.1900
     37 H37         3.2317   -0.8774   43.6828 H       1  ZINC001077846158    0.1000
     38 H38         2.0837    0.2955   41.8241 H       1  ZINC001077846158    0.0600
     39 H39         2.8250    1.8310   42.3351 H       1  ZINC001077846158    0.0600
     40 H40         3.8478    0.5096   41.7218 H       1  ZINC001077846158    0.0700
     41 H41         4.4302    0.4530   45.3981 H       1  ZINC001077846158    0.0600
     42 H42         5.2181    0.6016   43.8089 H       1  ZINC001077846158    0.0700
     43 H43         4.1953    1.9229   44.4223 H       1  ZINC001077846158    0.0600
     44 H44        -2.9248    0.5355   50.5930 H       1  ZINC001077846158    0.0600
     45 H45        -3.1825    1.3214   49.0095 H       1  ZINC001077846158    0.0900
     46 H46        -7.7411    4.2178   49.5011 H       1  ZINC001077846158    0.2500
@<TRIPOS>BOND
     1     1     2    1
     2     1    27    1
     3     1    28    1
     4     1    29    1
     5     2    26    1
     6     2     3    2
     7     3     4    1
     8     3    24    1
     9     4     5    1
    10     4    30    1
    11     4    31    1
    12     5    23    1
    13     5     6    1
    14     6     7    1
    15     6    32    1
    16     6    33    1
    17     7     8    1
    18     7     9    1
    19     7    10    1
    20     9    34    1
    21    10    11    1
    22    10    12    1
    23    10    23    1
    24    12    13   am
    25    12    35    1
    26    13    14    2
    27    13    15    1
    28    15    22    1
    29    15    16    2
    30    16    17    1
    31    16    36    1
    32    17    18    1
    33    18    19    1
    34    18    22    2
    35    19    20    1
    36    19    21    1
    37    19    37    1
    38    20    38    1
    39    20    39    1
    40    20    40    1
    41    21    41    1
    42    21    42    1
    43    21    43    1
    44    23    44    1
    45    23    45    1
    46    24    25    1
    47    25    26    2
    48    25    46    1
@<TRIPOS>SUBSTRUCTURE
     1 ZINC001077846158        1 TEMP              0 ****  ****    0 ROOT


##########                                Name:    ZINC000821442454
##########                DOCK_Rotatable_Bonds:                   6
##########                         Heavy_Atoms:                  26
##########                    Molecular_Weight:             398.873
##########                DOCK_Rotatable_Bonds:                   6
##########                       Formal_Charge:          -0.0399996
##########                     HBond_Acceptors:                  11
##########                        HBond_Donors:                   2
##########                         Heavy_Atoms:                  26
##########                          Grid_Score:          -32.989311
##########                     Grid_vdw_energy:          -32.371998
##########                      Grid_es_energy:           -0.617314
##########           Internal_energy_repulsive:           13.219138

@<TRIPOS>MOLECULE
ZINC000821442454
 45 47 1 0 0
SMALL
USER_CHARGES


@<TRIPOS>ATOM
      1 C1          2.9721    2.7388   52.9008 C.3     1  ZINC000821442454   -0.1500
      2 C2          1.9546    2.2782   51.8551 C.3     1  ZINC000821442454   -0.6300
      3 S3          2.8217    1.8144   50.3308 S.o2    1  ZINC000821442454    2.6000
      4 O4          3.3283    2.9683   49.6745 O.2     1  ZINC000821442454   -0.9500
      5 O5          3.6440    0.6766   50.5515 O.2     1  ZINC000821442454   -0.9500
      6 N6          1.6256    1.2651   49.3258 N.am    1  ZINC000821442454   -1.0000
      7 C7          1.9444    0.7910   47.9721 C.3     1  ZINC000821442454    0.1100
      8 C8          1.0691    1.5457   46.9666 C.3     1  ZINC000821442454   -0.1300
      9 C9         -0.4020    1.3880   47.3576 C.3     1  ZINC000821442454   -0.1100
     10 C10        -0.6303    1.9917   48.7452 C.3     1  ZINC000821442454   -0.1200
     11 H11        -0.3473    3.0443   48.7351 H       1  ZINC000821442454    0.1100
     12 C12        -2.0857    1.8656   49.1155 C.2     1  ZINC000821442454    0.5300
     13 O13        -2.9313    1.8276   48.2468 O.2     1  ZINC000821442454   -0.5100
     14 N14        -2.4476    1.7952   50.4118 N.am    1  ZINC000821442454   -0.6700
     15 C15        -3.7984    1.6782   50.7555 C.ar    1  ZINC000821442454    0.1800
     16 C16        -4.4996    0.5242   50.4297 C.ar    1  ZINC000821442454   -0.1200
     17 C17        -5.8314    0.4063   50.7681 C.ar    1  ZINC000821442454   -0.0500
     18 C18        -6.4743    1.4456   51.4373 C.ar    1  ZINC000821442454   -0.0300
     19 C19        -7.9074    1.3202   51.8025 C.2     1  ZINC000821442454    0.2200
     20 N20        -8.6537    0.2382   51.7022 N.2     1  ZINC000821442454   -0.2900
     21 N21        -9.8367    0.5352   52.1185 N.pl3   1  ZINC000821442454   -0.2200
     22 N22        -9.8635    1.7706   52.4794 N.2     1  ZINC000821442454   -0.0400
     23 N23        -8.6932    2.2837   52.3041 N.2     1  ZINC000821442454   -0.2700
     24 C24        -5.7697    2.6032   51.7637 C.ar    1  ZINC000821442454   -0.0500
     25 C25        -4.4363    2.7151   51.4282 C.ar    1  ZINC000821442454   -0.0800
     26 Cl26       -3.5576    4.1563   51.8342 Cl      1  ZINC000821442454   -0.0500
     27 C27         0.2264    1.2368   49.7730 C.3     1  ZINC000821442454    0.1400
     28 H28         3.6689    1.9276   53.1116 H       1  ZINC000821442454    0.0700
     29 H29         3.5213    3.5994   52.5188 H       1  ZINC000821442454    0.0700
     30 H30         2.4510    3.0176   53.8167 H       1  ZINC000821442454    0.0800
     31 H31         1.4054    1.4176   52.2371 H       1  ZINC000821442454    0.1300
     32 H32         1.2578    3.0896   51.6442 H       1  ZINC000821442454    0.1300
     33 H33         2.9958    0.9812   47.7565 H       1  ZINC000821442454    0.1000
     34 H34         1.7425   -0.2779   47.9023 H       1  ZINC000821442454    0.0700
     35 H35         1.3361    2.6025   46.9732 H       1  ZINC000821442454    0.0700
     36 H36         1.2262    1.1365   45.9685 H       1  ZINC000821442454    0.0800
     37 H37        -1.0286    1.9036   46.6298 H       1  ZINC000821442454    0.0700
     38 H38        -0.6618    0.3296   47.3749 H       1  ZINC000821442454    0.0800
     39 H39        -1.7713    1.8256   51.1065 H       1  ZINC000821442454    0.4200
     40 H40        -4.0014   -0.2814   49.9107 H       1  ZINC000821442454    0.1600
     41 H41        -6.3759   -0.4911   50.5141 H       1  ZINC000821442454    0.1500
     42 H42       -10.5889   -0.0762   52.1541 H       1  ZINC000821442454    0.4800
     43 H43        -6.2661    3.4099   52.2823 H       1  ZINC000821442454    0.1500
     44 H44        -0.1179    0.2054   49.8486 H       1  ZINC000821442454    0.0800
     45 H45         0.1447    1.7236   50.7448 H       1  ZINC000821442454    0.1000
@<TRIPOS>BOND
     1     1     2    1
     2     1    28    1
     3     1    29    1
     4     1    30    1
     5     2     3    1
     6     2    31    1
     7     2    32    1
     8     3     4    2
     9     3     5    2
    10     3     6   am
    11     6    27    1
    12     6     7    1
    13     7     8    1
    14     7    33    1
    15     7    34    1
    16     8     9    1
    17     8    35    1
    18     8    36    1
    19     9    10    1
    20     9    37    1
    21     9    38    1
    22    10    11    1
    23    10    12    1
    24    10    27    1
    25    12    13    2
    26    12    14   am
    27    14    15    1
    28    14    39    1
    29    15    25   ar
    30    15    16   ar
    31    16    17   ar
    32    16    40    1
    33    17    18   ar
    34    17    41    1
    35    18    19    1
    36    18    24   ar
    37    19    23    1
    38    19    20    2
    39    20    21    1
    40    21    22    1
    41    21    42    1
    42    22    23    2
    43    24    25   ar
    44    24    43    1
    45    25    26    1
    46    27    44    1
    47    27    45    1
@<TRIPOS>SUBSTRUCTURE
     1 ZINC000821442454        1 TEMP              0 ****  ****    0 ROOT


##########                                Name:    ZINC000175255939
##########                DOCK_Rotatable_Bonds:                   8
##########                         Heavy_Atoms:                  28
##########                    Molecular_Weight:             394.375
##########                DOCK_Rotatable_Bonds:                   8
##########                       Formal_Charge:          -0.0399999
##########                     HBond_Acceptors:                   9
##########                        HBond_Donors:                   1
##########                         Heavy_Atoms:                  28
##########                          Grid_Score:          -32.976566
##########                     Grid_vdw_energy:          -32.090107
##########                      Grid_es_energy:           -0.886459
##########           Internal_energy_repulsive:            9.399611

@<TRIPOS>MOLECULE
ZINC000175255939
 48 50 1 0 0
SMALL
USER_CHARGES


@<TRIPOS>ATOM
      1 C1          3.3658   -0.4729   51.6949 C.3     1  ZINC000175255939    0.0300
      2 O2          2.4104    0.3768   51.0066 O.3     1  ZINC000175255939   -0.3600
      3 C3          2.7741    0.8544   49.8060 C.2     1  ZINC000175255939    0.4600
      4 O4          3.8560    0.5742   49.3467 O.2     1  ZINC000175255939   -0.5000
      5 C5          1.8330    1.7402   49.0310 C.3     1  ZINC000175255939   -0.0800
      6 H6          2.0062    2.7812   49.3039 H       1  ZINC000175255939    0.1100
      7 C7          2.0793    1.5581   47.5319 C.3     1  ZINC000175255939   -0.1200
      8 C8          1.1238    2.4574   46.7452 C.3     1  ZINC000175255939   -0.1100
      9 C9         -0.3213    2.0776   47.0744 C.3     1  ZINC000175255939   -0.1200
     10 C10        -0.5677    2.2598   48.5734 C.3     1  ZINC000175255939   -0.1000
     11 H11        -0.3945    3.3007   48.8462 H       1  ZINC000175255939    0.1100
     12 C12        -1.9911    1.8856   48.8975 C.2     1  ZINC000175255939    0.5100
     13 O13        -2.8307    1.8791   48.0224 O.2     1  ZINC000175255939   -0.4800
     14 N14        -2.3309    1.5583   50.1600 N.am    1  ZINC000175255939   -0.6300
     15 C15        -3.6419    1.2153   50.4588 C.2     1  ZINC000175255939    0.2100
     16 C16        -4.4522    1.8129   51.3774 C.2     1  ZINC000175255939   -0.2600
     17 C17        -5.6673    1.0859   51.2834 C.2     1  ZINC000175255939    0.0900
     18 C18        -6.9057    1.3159   52.0678 C.ar    1  ZINC000175255939   -0.0500
     19 C19        -8.0753    0.6311   51.7428 C.ar    1  ZINC000175255939   -0.0600
     20 C20        -9.2246    0.8467   52.4734 C.ar    1  ZINC000175255939   -0.1300
     21 C21        -9.2176    1.7454   53.5319 C.ar    1  ZINC000175255939    0.1200
     22 O22       -10.3513    1.9559   54.2500 O.3     1  ZINC000175255939   -0.3200
     23 C23       -11.5075    2.3828   53.5268 C.3     1  ZINC000175255939    0.4100
     24 F24       -12.5971    2.4716   54.3999 F       1  ZINC000175255939   -0.2000
     25 F25       -11.2639    3.6366   52.9560 F       1  ZINC000175255939   -0.2000
     26 C26        -8.0538    2.4290   53.8579 C.ar    1  ZINC000175255939   -0.1900
     27 C27        -6.8999    2.2127   53.1347 C.ar    1  ZINC000175255939   -0.0500
     28 N28        -5.4766    0.1698   50.3642 N.2     1  ZINC000175255939   -0.3600
     29 O29        -4.3639    0.2332   49.8958 O.3     1  ZINC000175255939    0.1200
     30 C30         0.3878    1.3604   49.3602 C.3     1  ZINC000175255939   -0.0900
     31 H31         2.9479   -0.7895   52.6506 H       1  ZINC000175255939    0.1000
     32 H32         3.5790   -1.3496   51.0832 H       1  ZINC000175255939    0.0600
     33 H33         4.2876    0.0825   51.8677 H       1  ZINC000175255939    0.0600
     34 H34         3.1088    1.8287   47.2975 H       1  ZINC000175255939    0.0800
     35 H35         1.9060    0.5171   47.2591 H       1  ZINC000175255939    0.0700
     36 H36         1.2971    3.4984   47.0180 H       1  ZINC000175255939    0.0700
     37 H37         1.2994    2.3277   45.6773 H       1  ZINC000175255939    0.0800
     38 H38        -1.0021    2.7183   46.5138 H       1  ZINC000175255939    0.0700
     39 H39        -0.4946    1.0367   46.8014 H       1  ZINC000175255939    0.0800
     40 H40        -1.6591    1.5623   50.8596 H       1  ZINC000175255939    0.4300
     41 H41        -4.2229    2.6455   52.0259 H       1  ZINC000175255939    0.1800
     42 H42        -8.0815   -0.0675   50.9191 H       1  ZINC000175255939    0.1400
     43 H43       -10.1312    0.3164   52.2219 H       1  ZINC000175255939    0.1400
     44 H44       -11.7304    1.6623   52.7398 H       1  ZINC000175255939    0.1900
     45 H45        -8.0512    3.1275   54.6817 H       1  ZINC000175255939    0.1400
     46 H46        -5.9950    2.7444   53.3890 H       1  ZINC000175255939    0.1400
     47 H47         0.2146    0.3195   49.0873 H       1  ZINC000175255939    0.0900
     48 H48         0.2123    1.4901   50.4281 H       1  ZINC000175255939    0.0800
@<TRIPOS>BOND
     1     1     2    1
     2     1    31    1
     3     1    32    1
     4     1    33    1
     5     2     3    1
     6     3     4    2
     7     3     5    1
     8     5     6    1
     9     5    30    1
    10     5     7    1
    11     7     8    1
    12     7    34    1
    13     7    35    1
    14     8     9    1
    15     8    36    1
    16     8    37    1
    17     9    10    1
    18     9    38    1
    19     9    39    1
    20    10    11    1
    21    10    12    1
    22    10    30    1
    23    12    13    2
    24    12    14   am
    25    14    15    1
    26    14    40    1
    27    15    29    1
    28    15    16    2
    29    16    17    1
    30    16    41    1
    31    17    18    1
    32    17    28    2
    33    18    27   ar
    34    18    19   ar
    35    19    20   ar
    36    19    42    1
    37    20    21   ar
    38    20    43    1
    39    21    22    1
    40    21    26   ar
    41    22    23    1
    42    23    24    1
    43    23    25    1
    44    23    44    1
    45    26    27   ar
    46    26    45    1
    47    27    46    1
    48    28    29    1
    49    30    47    1
    50    30    48    1
@<TRIPOS>SUBSTRUCTURE
     1 ZINC000175255939        1 TEMP              0 ****  ****    0 ROOT


##########                                Name:    ZINC000918875053
##########                DOCK_Rotatable_Bonds:                   6
##########                         Heavy_Atoms:                  26
##########                    Molecular_Weight:             359.357
##########                DOCK_Rotatable_Bonds:                   6
##########                       Formal_Charge:           0.0200003
##########                     HBond_Acceptors:                   8
##########                        HBond_Donors:                   0
##########                         Heavy_Atoms:                  26
##########                          Grid_Score:          -32.970688
##########                     Grid_vdw_energy:          -31.194429
##########                      Grid_es_energy:           -1.776259
##########           Internal_energy_repulsive:            7.569453

@<TRIPOS>MOLECULE
ZINC000918875053
 44 47 1 0 0
SMALL
USER_CHARGES


@<TRIPOS>ATOM
      1 C1         -1.1831    2.7919   51.7330 C.3     1  ZINC000918875053   -0.1700
      2 C2         -1.9174    1.8399   50.7866 C.3     1  ZINC000918875053    0.1900
      3 H3         -1.8706    0.8256   51.1832 H       1  ZINC000918875053    0.1400
      4 O4         -3.3053    2.2499   50.6685 O.3     1  ZINC000918875053   -0.3400
      5 C5         -4.1929    1.3038   50.3236 C.2     1  ZINC000918875053    0.4800
      6 O6         -3.8103    0.1999   50.0159 O.2     1  ZINC000918875053   -0.4900
      7 C7         -5.6666    1.6187   50.3201 C.3     1  ZINC000918875053   -0.0900
      8 H8         -5.9945    1.9304   49.3284 H       1  ZINC000918875053    0.1400
      9 C9         -6.4918    0.4108   50.8213 C.3     1  ZINC000918875053   -0.1400
     10 C10        -7.6133    1.0344   51.6223 C.2     1  ZINC000918875053    0.5300
     11 O11        -8.6317    0.4643   51.9524 O.2     1  ZINC000918875053   -0.5000
     12 N12        -7.3170    2.3124   51.9154 N.am    1  ZINC000918875053   -0.5800
     13 C13        -8.1528    3.1711   52.6402 C.ar    1  ZINC000918875053    0.1000
     14 C14        -9.0307    4.0138   51.9732 C.ar    1  ZINC000918875053   -0.0800
     15 C15        -9.8546    4.8598   52.6908 C.ar    1  ZINC000918875053   -0.1200
     16 C16        -9.8055    4.8685   54.0723 C.ar    1  ZINC000918875053   -0.0800
     17 C17        -8.9322    4.0305   54.7418 C.ar    1  ZINC000918875053   -0.1500
     18 C18        -8.1090    3.1773   54.0304 C.ar    1  ZINC000918875053    0.1100
     19 F19        -7.2562    2.3584   54.6841 F       1  ZINC000918875053   -0.1300
     20 C20        -6.0050    2.6929   51.3773 C.3     1  ZINC000918875053    0.1200
     21 C21        -1.2648    1.8790   49.4288 C.2     1  ZINC000918875053    0.1800
     22 N22        -1.8761    1.9100   48.2691 N.2     1  ZINC000918875053   -0.4600
     23 C23        -0.8989    1.9377   47.3454 C.2     1  ZINC000918875053    0.2100
     24 C24        -1.0856    1.9793   45.8506 C.3     1  ZINC000918875053   -0.0900
     25 C25         0.1252    1.6431   44.9778 C.3     1  ZINC000918875053   -0.1600
     26 C26        -1.0330    0.6501   45.0948 C.3     1  ZINC000918875053   -0.1500
     27 N27         0.2357    1.9224   47.9786 N.2     1  ZINC000918875053   -0.3700
     28 O28         0.0475    1.8946   49.1766 O.3     1  ZINC000918875053    0.1000
     29 H29        -1.6551    2.7636   52.7150 H       1  ZINC000918875053    0.0900
     30 H30        -0.1413    2.4841   51.8215 H       1  ZINC000918875053    0.0900
     31 H31        -1.2299    3.8061   51.3364 H       1  ZINC000918875053    0.0800
     32 H32        -6.8924   -0.1534   49.9791 H       1  ZINC000918875053    0.1300
     33 H33        -5.8811   -0.2314   51.4559 H       1  ZINC000918875053    0.1100
     34 H34        -9.0698    4.0087   50.8938 H       1  ZINC000918875053    0.1400
     35 H35       -10.5378    5.5155   52.1715 H       1  ZINC000918875053    0.1400
     36 H36       -10.4502    5.5314   54.6301 H       1  ZINC000918875053    0.1400
     37 H37        -8.8962    4.0398   55.8211 H       1  ZINC000918875053    0.1400
     38 H38        -5.2569    2.6900   52.1701 H       1  ZINC000918875053    0.1000
     39 H39        -6.0590    3.6773   50.9125 H       1  ZINC000918875053    0.1000
     40 H40        -1.7750    2.7398   45.4840 H       1  ZINC000918875053    0.1400
     41 H41         0.2326    2.1824   44.0367 H       1  ZINC000918875053    0.1100
     42 H42         1.0568    1.3916   45.4848 H       1  ZINC000918875053    0.1000
     43 H43        -0.8634   -0.2545   45.6788 H       1  ZINC000918875053    0.1000
     44 H44        -1.6875    0.5363   44.2306 H       1  ZINC000918875053    0.1100
@<TRIPOS>BOND
     1     1     2    1
     2     1    29    1
     3     1    30    1
     4     1    31    1
     5     2     3    1
     6     2     4    1
     7     2    21    1
     8     4     5    1
     9     5     6    2
    10     5     7    1
    11     7     8    1
    12     7    20    1
    13     7     9    1
    14     9    10    1
    15     9    32    1
    16     9    33    1
    17    10    11    2
    18    10    12   am
    19    12    13    1
    20    12    20    1
    21    13    18   ar
    22    13    14   ar
    23    14    15   ar
    24    14    34    1
    25    15    16   ar
    26    15    35    1
    27    16    17   ar
    28    16    36    1
    29    17    18   ar
    30    17    37    1
    31    18    19    1
    32    20    38    1
    33    20    39    1
    34    21    28    1
    35    21    22    2
    36    22    23    1
    37    23    24    1
    38    23    27    2
    39    24    26    1
    40    24    25    1
    41    24    40    1
    42    25    26    1
    43    25    41    1
    44    25    42    1
    45    26    43    1
    46    26    44    1
    47    27    28    1
@<TRIPOS>SUBSTRUCTURE
     1 ZINC000918875053        1 TEMP              0 ****  ****    0 ROOT


##########                                Name:    ZINC000114394234
##########                DOCK_Rotatable_Bonds:                   9
##########                         Heavy_Atoms:                  27
##########                    Molecular_Weight:             365.392
##########                DOCK_Rotatable_Bonds:                   9
##########                       Formal_Charge:           0.0300002
##########                     HBond_Acceptors:                   8
##########                        HBond_Donors:                   3
##########                         Heavy_Atoms:                  27
##########                          Grid_Score:          -32.938869
##########                     Grid_vdw_energy:          -32.479004
##########                      Grid_es_energy:           -0.459867
##########           Internal_energy_repulsive:           15.678087

@<TRIPOS>MOLECULE
ZINC000114394234
 46 48 1 0 0
SMALL
USER_CHARGES


@<TRIPOS>ATOM
      1 C1         -2.5521    2.7531   51.4237 C.3     1  ZINC000114394234   -0.1600
      2 C2         -2.8296    1.5407   50.5326 C.3     1  ZINC000114394234    0.1300
      3 H3         -2.7293    0.6277   51.1196 H       1  ZINC000114394234    0.1200
      4 N4         -4.1903    1.6297   49.9968 N.am    1  ZINC000114394234   -0.7100
      5 C5         -5.2043    1.0025   50.6251 C.2     1  ZINC000114394234    0.5200
      6 O6         -4.9902    0.3631   51.6332 O.2     1  ZINC000114394234   -0.5100
      7 C7         -6.6041    1.0955   50.0750 C.3     1  ZINC000114394234    0.0400
      8 O8         -7.5410    1.0956   51.1540 O.3     1  ZINC000114394234   -0.2900
      9 C9         -7.3740    2.0408   52.1162 C.ar    1  ZINC000114394234    0.1300
     10 C10        -6.7177    3.2264   51.8189 C.ar    1  ZINC000114394234   -0.2100
     11 C11        -6.5496    4.1858   52.7986 C.ar    1  ZINC000114394234   -0.0800
     12 C12        -7.0344    3.9651   54.0745 C.ar    1  ZINC000114394234   -0.1600
     13 C13        -7.6884    2.7841   54.3734 C.ar    1  ZINC000114394234   -0.0800
     14 C14        -7.8645    1.8241   53.3956 C.ar    1  ZINC000114394234   -0.1500
     15 C15        -1.8420    1.5172   49.3946 C.2     1  ZINC000114394234    0.5100
     16 O16        -1.2333    0.4992   49.1408 O.2     1  ZINC000114394234   -0.5100
     17 N17        -1.6350    2.6272   48.6588 N.am    1  ZINC000114394234   -0.6700
     18 C18        -0.7180    2.6053   47.6021 C.ar    1  ZINC000114394234    0.1300
     19 C19         0.3661    3.4742   47.6048 C.ar    1  ZINC000114394234   -0.1200
     20 C20         1.2740    3.4554   46.5627 C.ar    1  ZINC000114394234   -0.1000
     21 C21         1.1085    2.5738   45.5135 C.ar    1  ZINC000114394234   -0.0900
     22 C22         0.0234    1.6990   45.5023 C.ar    1  ZINC000114394234    0.0000
     23 C23        -0.1563    0.7509   44.3747 C.2     1  ZINC000114394234    0.2700
     24 N24        -1.1869   -0.0472   44.2011 N.2     1  ZINC000114394234   -0.3000
     25 N25        -0.9477   -0.7641   43.0175 N.pl3   1  ZINC000114394234   -0.4800
     26 C26         0.2388   -0.3398   42.5466 C.2     1  ZINC000114394234    0.2700
     27 N27         0.7020    0.5704   43.3618 N.2     1  ZINC000114394234   -0.5300
     28 C28        -0.8878    1.7124   46.5545 C.ar    1  ZINC000114394234   -0.0800
     29 H29        -2.6524    3.6660   50.8367 H       1  ZINC000114394234    0.0700
     30 H30        -3.2664    2.7701   52.2469 H       1  ZINC000114394234    0.0800
     31 H31        -1.5398    2.6868   51.8223 H       1  ZINC000114394234    0.0800
     32 H32        -4.3613    2.1401   49.1898 H       1  ZINC000114394234    0.4100
     33 H33        -6.7091    2.0171   49.5026 H       1  ZINC000114394234    0.1000
     34 H34        -6.7972    0.2410   49.4263 H       1  ZINC000114394234    0.1000
     35 H35        -6.3381    3.3990   50.8226 H       1  ZINC000114394234    0.1300
     36 H36        -6.0388    5.1089   52.5677 H       1  ZINC000114394234    0.1300
     37 H37        -6.9017    4.7162   54.8391 H       1  ZINC000114394234    0.1300
     38 H38        -8.0659    2.6138   55.3708 H       1  ZINC000114394234    0.1300
     39 H39        -8.3755    0.9018   53.6296 H       1  ZINC000114394234    0.1300
     40 H40        -2.1218    3.4413   48.8618 H       1  ZINC000114394234    0.4200
     41 H41         0.4997    4.1662   48.4231 H       1  ZINC000114394234    0.1300
     42 H42         2.1152    4.1327   46.5693 H       1  ZINC000114394234    0.1400
     43 H43         1.8196    2.5622   44.7007 H       1  ZINC000114394234    0.1400
     44 H44        -1.5246   -1.4340   42.6183 H       1  ZINC000114394234    0.4400
     45 H45         0.7234   -0.6883   41.6464 H       1  ZINC000114394234    0.2300
     46 H46        -1.7300    1.0365   46.5503 H       1  ZINC000114394234    0.1500
@<TRIPOS>BOND
     1     1     2    1
     2     1    29    1
     3     1    30    1
     4     1    31    1
     5     2     3    1
     6     2     4    1
     7     2    15    1
     8     4     5   am
     9     4    32    1
    10     5     6    2
    11     5     7    1
    12     7     8    1
    13     7    33    1
    14     7    34    1
    15     8     9    1
    16     9    14   ar
    17     9    10   ar
    18    10    11   ar
    19    10    35    1
    20    11    12   ar
    21    11    36    1
    22    12    13   ar
    23    12    37    1
    24    13    14   ar
    25    13    38    1
    26    14    39    1
    27    15    16    2
    28    15    17   am
    29    17    18    1
    30    17    40    1
    31    18    28   ar
    32    18    19   ar
    33    19    20   ar
    34    19    41    1
    35    20    21   ar
    36    20    42    1
    37    21    22   ar
    38    21    43    1
    39    22    23    1
    40    22    28   ar
    41    23    27    1
    42    23    24    2
    43    24    25    1
    44    25    26    1
    45    25    44    1
    46    26    27    2
    47    26    45    1
    48    28    46    1
@<TRIPOS>SUBSTRUCTURE
     1 ZINC000114394234        1 TEMP              0 ****  ****    0 ROOT


##########                                Name:    ZINC000174621331
##########                DOCK_Rotatable_Bonds:                   8
##########                         Heavy_Atoms:                  25
##########                    Molecular_Weight:             366.438
##########                DOCK_Rotatable_Bonds:                   8
##########                       Formal_Charge:        -5.96046e-08
##########                     HBond_Acceptors:                   8
##########                        HBond_Donors:                   3
##########                         Heavy_Atoms:                  25
##########                          Grid_Score:          -32.920078
##########                     Grid_vdw_energy:          -30.477442
##########                      Grid_es_energy:           -2.442635
##########           Internal_energy_repulsive:           12.187327

@<TRIPOS>MOLECULE
ZINC000174621331
 47 48 1 0 0
SMALL
USER_CHARGES


@<TRIPOS>ATOM
      1 C1         -7.2221    4.2537   49.0489 C.3     1  ZINC000174621331    0.0300
      2 O2         -6.5893    3.6033   50.1529 O.3     1  ZINC000174621331   -0.3800
      3 C3         -6.5848    2.1772   50.0625 C.3     1  ZINC000174621331    0.0500
      4 C4         -5.8156    1.5934   51.2492 C.3     1  ZINC000174621331    0.2400
      5 H5         -5.8623    0.5050   51.2125 H       1  ZINC000174621331    0.1300
      6 N6         -4.4169    2.0247   51.1844 N.am    1  ZINC000174621331   -0.7200
      7 C7         -3.5051    1.2611   50.5503 C.2     1  ZINC000174621331    0.5600
      8 O8         -3.8428    0.2141   50.0336 O.2     1  ZINC000174621331   -0.5300
      9 C9         -2.0940    1.6972   50.4834 C.ar    1  ZINC000174621331   -0.1600
     10 C10        -1.5733    2.5396   51.4667 C.ar    1  ZINC000174621331   -0.0200
     11 C11        -0.2554    2.9425   51.3985 C.ar    1  ZINC000174621331   -0.1100
     12 C12         0.3085    3.8521   52.4594 C.3     1  ZINC000174621331   -0.1200
     13 C13         0.5495    2.5128   50.3586 C.ar    1  ZINC000174621331    0.0400
     14 C14         1.9881    2.9564   50.2909 C.3     1  ZINC000174621331   -0.1600
     15 C15         0.0395    1.6770   49.3806 C.ar    1  ZINC000174621331   -0.6800
     16 S16         1.0736    1.1352   48.0608 S.o2    1  ZINC000174621331    2.7000
     17 N17         0.2014    0.0443   47.1710 N.am    1  ZINC000174621331   -1.2500
     18 O18         1.2789    2.2640   47.2226 O.2     1  ZINC000174621331   -0.9500
     19 O19         2.1375    0.4067   48.6579 O.2     1  ZINC000174621331   -0.9600
     20 C20        -1.2750    1.2634   49.4394 C.ar    1  ZINC000174621331    0.0400
     21 C21        -6.4320    2.0796   52.5356 C.2     1  ZINC000174621331   -0.0200
     22 C22        -7.7153    1.9159   52.9040 C.2     1  ZINC000174621331   -0.1900
     23 C23        -7.8578    2.5229   54.1729 C.2     1  ZINC000174621331   -0.2100
     24 C24        -6.6530    3.0213   54.5039 C.2     1  ZINC000174621331    0.0000
     25 C25        -6.3236    3.7585   55.7764 C.3     1  ZINC000174621331   -0.0800
     26 O26        -5.7919    2.7447   53.5111 O.3     1  ZINC000174621331   -0.1600
     27 H27        -6.7034    3.9915   48.1268 H       1  ZINC000174621331    0.0400
     28 H28        -8.2617    3.9321   48.9850 H       1  ZINC000174621331    0.0400
     29 H29        -7.1840    5.3335   49.1929 H       1  ZINC000174621331    0.0900
     30 H30        -7.6105    1.8089   50.0778 H       1  ZINC000174621331    0.0700
     31 H31        -6.1035    1.8736   49.1328 H       1  ZINC000174621331    0.0700
     32 H32        -4.1472    2.8597   51.5978 H       1  ZINC000174621331    0.4100
     33 H33        -2.2007    2.8757   52.2789 H       1  ZINC000174621331    0.1400
     34 H34         0.7236    3.2521   53.2693 H       1  ZINC000174621331    0.0800
     35 H35         1.0941    4.4716   52.0267 H       1  ZINC000174621331    0.0800
     36 H36        -0.4842    4.4905   52.8495 H       1  ZINC000174621331    0.0700
     37 H37         2.6137    2.2442   50.8289 H       1  ZINC000174621331    0.1100
     38 H38         2.3050    3.0040   49.2490 H       1  ZINC000174621331    0.0700
     39 H39         2.0861    3.9421   50.7458 H       1  ZINC000174621331    0.0900
     40 H40        -0.1296   -0.7668   47.5872 H       1  ZINC000174621331    0.4200
     41 H41         0.0217    0.2165   46.2335 H       1  ZINC000174621331    0.4200
     42 H42        -1.6717    0.6108   48.6757 H       1  ZINC000174621331    0.1600
     43 H43        -8.4885    1.4169   52.3387 H       1  ZINC000174621331    0.1500
     44 H44        -8.7608    2.5765   54.7630 H       1  ZINC000174621331    0.1500
     45 H45        -6.0004    3.0464   56.5356 H       1  ZINC000174621331    0.0800
     46 H46        -5.5238    4.4738   55.5852 H       1  ZINC000174621331    0.0800
     47 H47        -7.2085    4.2886   56.1287 H       1  ZINC000174621331    0.0900
@<TRIPOS>BOND
     1     1     2    1
     2     1    27    1
     3     1    28    1
     4     1    29    1
     5     2     3    1
     6     3     4    1
     7     3    30    1
     8     3    31    1
     9     4     5    1
    10     4     6    1
    11     4    21    1
    12     6     7   am
    13     6    32    1
    14     7     8    2
    15     7     9    1
    16     9    20   ar
    17     9    10   ar
    18    10    11   ar
    19    10    33    1
    20    11    12    1
    21    11    13   ar
    22    12    34    1
    23    12    35    1
    24    12    36    1
    25    13    14    1
    26    13    15   ar
    27    14    37    1
    28    14    38    1
    29    14    39    1
    30    15    16    1
    31    15    20   ar
    32    16    17   am
    33    16    18    2
    34    16    19    2
    35    17    40    1
    36    17    41    1
    37    20    42    1
    38    21    26    1
    39    21    22    2
    40    22    23    1
    41    22    43    1
    42    23    24    2
    43    23    44    1
    44    24    25    1
    45    24    26    1
    46    25    45    1
    47    25    46    1
    48    25    47    1
@<TRIPOS>SUBSTRUCTURE
     1 ZINC000174621331        1 TEMP              0 ****  ****    0 ROOT


##########                                Name:    ZINC000573150059
##########                DOCK_Rotatable_Bonds:                   7
##########                         Heavy_Atoms:                  23
##########                    Molecular_Weight:             378.269
##########                DOCK_Rotatable_Bonds:                   7
##########                       Formal_Charge:        -2.98023e-07
##########                     HBond_Acceptors:                   5
##########                        HBond_Donors:                   2
##########                         Heavy_Atoms:                  23
##########                          Grid_Score:          -32.887997
##########                     Grid_vdw_energy:          -31.533642
##########                      Grid_es_energy:           -1.354353
##########           Internal_energy_repulsive:           13.867163

@<TRIPOS>MOLECULE
ZINC000573150059
 43 44 1 0 0
SMALL
USER_CHARGES


@<TRIPOS>ATOM
      1 C1         -7.5368    8.8210   44.9991 C.3     1  ZINC000573150059    0.0300
      2 O2         -7.3910    7.7901   45.9778 O.3     1  ZINC000573150059   -0.3600
      3 C3         -7.9399    8.1197   47.2554 C.3     1  ZINC000573150059    0.0700
      4 H4         -7.4417    9.0065   47.6470 H       1  ZINC000573150059    0.0900
      5 C5         -9.4374    8.3978   47.1108 C.3     1  ZINC000573150059   -0.1700
      6 C6         -7.7323    6.9670   48.2037 C.2     1  ZINC000573150059    0.5100
      7 O7         -6.7449    6.9307   48.9072 O.2     1  ZINC000573150059   -0.4900
      8 N8         -8.6437    5.9765   48.2701 N.am    1  ZINC000573150059   -0.6700
      9 C9         -8.4509    4.9063   49.1507 C.ar    1  ZINC000573150059    0.1900
     10 C10        -9.3715    4.6640   50.1624 C.ar    1  ZINC000573150059   -0.2000
     11 C11        -9.1821    3.6073   51.0326 C.ar    1  ZINC000573150059   -0.0500
     12 C12        -8.0778    2.7884   50.8993 C.ar    1  ZINC000573150059   -0.2200
     13 C13        -7.1532    3.0251   49.8889 C.ar    1  ZINC000573150059    0.2400
     14 N14        -6.0370    2.1964   49.7544 N.pl3   1  ZINC000573150059   -0.7300
     15 C15        -5.4755    1.5273   50.9305 C.3     1  ZINC000573150059    0.2000
     16 H16        -5.8621    1.9970   51.8349 H       1  ZINC000573150059    0.1000
     17 C17        -5.8715    0.0494   50.9141 C.3     1  ZINC000573150059   -0.1700
     18 C18        -3.9733    1.6450   50.9059 C.ar    1  ZINC000573150059    0.1400
     19 C19        -3.3453    2.5454   51.7454 C.ar    1  ZINC000573150059   -0.1600
     20 C20        -1.9627    2.6460   51.7157 C.ar    1  ZINC000573150059   -0.0400
     21 C21        -1.2604    1.8331   50.8382 C.ar    1  ZINC000573150059   -0.1500
     22 Br22        0.6264    1.9229   50.7511 Br      1  ZINC000573150059   -0.0300
     23 C23        -1.9581    0.9556   50.0280 C.ar    1  ZINC000573150059    0.1400
     24 N24        -3.2733    0.8839   50.0874 N.ar    1  ZINC000573150059   -0.4700
     25 C25        -7.3432    4.0825   49.0107 C.ar    1  ZINC000573150059   -0.1900
     26 H26        -8.5955    9.0329   44.8495 H       1  ZINC000573150059    0.0500
     27 H27        -7.0310    9.7231   45.3435 H       1  ZINC000573150059    0.0400
     28 H28        -7.0952    8.4937   44.0579 H       1  ZINC000573150059    0.0900
     29 H29        -9.9355    7.5109   46.7191 H       1  ZINC000573150059    0.0700
     30 H30        -9.8560    8.6492   48.0853 H       1  ZINC000573150059    0.0700
     31 H31        -9.5875    9.2315   46.4250 H       1  ZINC000573150059    0.0700
     32 H32        -9.4334    6.0055   47.7076 H       1  ZINC000573150059    0.4100
     33 H33       -10.2360    5.3024   50.2693 H       1  ZINC000573150059    0.1200
     34 H34        -9.8990    3.4216   51.8187 H       1  ZINC000573150059    0.1300
     35 H35        -7.9324    1.9636   51.5811 H       1  ZINC000573150059    0.1200
     36 H36        -5.6336    2.0639   48.8822 H       1  ZINC000573150059    0.4100
     37 H37        -5.4849   -0.4203   50.0097 H       1  ZINC000573150059    0.0600
     38 H38        -5.4537   -0.4483   51.7891 H       1  ZINC000573150059    0.0700
     39 H39        -6.9580   -0.0357   50.9318 H       1  ZINC000573150059    0.0700
     40 H40        -3.9241    3.1630   52.4160 H       1  ZINC000573150059    0.1500
     41 H41        -1.4450    3.3411   52.3602 H       1  ZINC000573150059    0.1500
     42 H42        -1.4192    0.3193   49.3416 H       1  ZINC000573150059    0.1700
     43 H43        -6.6265    4.2684   48.2244 H       1  ZINC000573150059    0.1400
@<TRIPOS>BOND
     1     1     2    1
     2     1    26    1
     3     1    27    1
     4     1    28    1
     5     2     3    1
     6     3     4    1
     7     3     5    1
     8     3     6    1
     9     5    29    1
    10     5    30    1
    11     5    31    1
    12     6     7    2
    13     6     8   am
    14     8     9    1
    15     8    32    1
    16     9    25   ar
    17     9    10   ar
    18    10    11   ar
    19    10    33    1
    20    11    12   ar
    21    11    34    1
    22    12    13   ar
    23    12    35    1
    24    13    14    1
    25    13    25   ar
    26    14    15    1
    27    14    36    1
    28    15    16    1
    29    15    17    1
    30    15    18    1
    31    17    37    1
    32    17    38    1
    33    17    39    1
    34    18    24   ar
    35    18    19   ar
    36    19    20   ar
    37    19    40    1
    38    20    21   ar
    39    20    41    1
    40    21    22    1
    41    21    23   ar
    42    23    24   ar
    43    23    42    1
    44    25    43    1
@<TRIPOS>SUBSTRUCTURE
     1 ZINC000573150059        1 TEMP              0 ****  ****    0 ROOT


##########                                Name:    ZINC000429196987
##########                DOCK_Rotatable_Bonds:                   7
##########                         Heavy_Atoms:                  28
##########                    Molecular_Weight:             403.505
##########                DOCK_Rotatable_Bonds:                   7
##########                       Formal_Charge:          -0.0399997
##########                     HBond_Acceptors:                   9
##########                        HBond_Donors:                   1
##########                         Heavy_Atoms:                  28
##########                          Grid_Score:          -32.884045
##########                     Grid_vdw_energy:          -31.261856
##########                      Grid_es_energy:           -1.622188
##########           Internal_energy_repulsive:           12.982560

@<TRIPOS>MOLECULE
ZINC000429196987
 53 55 1 0 0
SMALL
USER_CHARGES


@<TRIPOS>ATOM
      1 C1         -4.8925    1.7996   51.7124 C.3     1  ZINC000429196987    0.0800
      2 N2         -3.7030    2.4481   51.1549 N.am    1  ZINC000429196987   -0.6300
      3 C3         -3.3273    3.7934   51.5967 C.3     1  ZINC000429196987    0.1600
      4 C4         -2.5520    3.7008   52.8855 C.ar    1  ZINC000429196987   -0.0600
      5 C5         -1.1804    3.5314   52.8564 C.ar    1  ZINC000429196987   -0.1300
      6 C6         -0.4692    3.4465   54.0388 C.ar    1  ZINC000429196987   -0.0300
      7 C7         -1.1295    3.5313   55.2502 C.ar    1  ZINC000429196987   -0.6600
      8 S8         -0.2230    3.4225   56.7572 S.o2    1  ZINC000429196987    2.5000
      9 C9         -0.7142    1.8270   57.4668 C.3     1  ZINC000429196987   -0.6500
     10 O10         1.1369    3.3881   56.3464 O.2     1  ZINC000429196987   -0.9400
     11 O11        -0.7233    4.4940   57.5452 O.2     1  ZINC000429196987   -0.9400
     12 C12        -2.5009    3.7021   55.2793 C.ar    1  ZINC000429196987   -0.0300
     13 C13        -3.2117    3.7909   54.0970 C.ar    1  ZINC000429196987   -0.1100
     14 C14        -2.9543    1.8070   50.2358 C.2     1  ZINC000429196987    0.7100
     15 O15        -3.2669    0.6911   49.8682 O.2     1  ZINC000429196987   -0.5800
     16 N16        -1.8591    2.4030   49.7242 N.am    1  ZINC000429196987   -0.7400
     17 C17        -1.0442    1.7054   48.7263 C.3     1  ZINC000429196987    0.1600
     18 C18        -1.5243    2.0796   47.3213 C.3     1  ZINC000429196987   -0.1300
     19 C19        -0.6312    1.3961   46.2834 C.3     1  ZINC000429196987    0.0700
     20 N20         0.7602    1.8246   46.4750 N.3     1  ZINC000429196987   -0.4700
     21 C21         1.5786    1.3252   45.4678 C.ar    1  ZINC000429196987    0.2500
     22 C22         1.4011    1.7426   44.1494 C.ar    1  ZINC000429196987   -0.1300
     23 C23         2.2428    1.2150   43.1829 C.ar    1  ZINC000429196987   -0.1000
     24 C24         3.2095    0.3046   43.5861 C.ar    1  ZINC000429196987    0.0200
     25 N25         3.3069   -0.0344   44.8562 N.ar    1  ZINC000429196987   -0.2200
     26 N26         2.5346    0.4543   45.7574 N.ar    1  ZINC000429196987   -0.2800
     27 C27         1.2584    1.4341   47.8000 C.3     1  ZINC000429196987    0.0600
     28 C28         0.4217    2.1187   48.8832 C.3     1  ZINC000429196987   -0.1200
     29 H29        -5.7606    2.0450   51.1005 H       1  ZINC000429196987    0.0600
     30 H30        -4.7473    0.7193   51.7204 H       1  ZINC000429196987    0.0700
     31 H31        -5.0547    2.1519   52.7311 H       1  ZINC000429196987    0.0800
     32 H32        -2.7091    4.2669   50.8339 H       1  ZINC000429196987    0.1000
     33 H33        -4.2269    4.3880   51.7558 H       1  ZINC000429196987    0.0900
     34 H34        -0.6644    3.4652   51.9099 H       1  ZINC000429196987    0.1300
     35 H35         0.6024    3.3136   54.0160 H       1  ZINC000429196987    0.1400
     36 H36        -0.4522    1.0259   56.7756 H       1  ZINC000429196987    0.1300
     37 H37        -0.1949    1.6749   58.4130 H       1  ZINC000429196987    0.1300
     38 H38        -1.7907    1.8216   57.6382 H       1  ZINC000429196987    0.1300
     39 H39        -3.0169    3.7687   56.2258 H       1  ZINC000429196987    0.1400
     40 H40        -4.2832    3.9242   54.1198 H       1  ZINC000429196987    0.1400
     41 H41        -1.6103    3.2938   50.0166 H       1  ZINC000429196987    0.4000
     42 H42        -1.1364    0.6287   48.8690 H       1  ZINC000429196987    0.0900
     43 H43        -2.5546    1.7494   47.1889 H       1  ZINC000429196987    0.0800
     44 H44        -1.4688    3.1607   47.1937 H       1  ZINC000429196987    0.0700
     45 H45        -0.6979    0.3148   46.4027 H       1  ZINC000429196987    0.0600
     46 H46        -0.9615    1.6720   45.2820 H       1  ZINC000429196987    0.0900
     47 H47         0.6316    2.4544   43.8893 H       1  ZINC000429196987    0.1500
     48 H48         2.1489    1.5035   42.1464 H       1  ZINC000429196987    0.1500
     49 H49         3.8819   -0.1264   42.8591 H       1  ZINC000429196987    0.1700
     50 H50         1.1829    0.3525   47.9121 H       1  ZINC000429196987    0.0500
     51 H51         2.3006    1.7375   47.9001 H       1  ZINC000429196987    0.0900
     52 H52         0.5079    3.2004   48.7802 H       1  ZINC000429196987    0.0800
     53 H53         0.7819    1.8164   49.8666 H       1  ZINC000429196987    0.0800
@<TRIPOS>BOND
     1     1     2    1
     2     1    29    1
     3     1    30    1
     4     1    31    1
     5     2     3    1
     6     2    14   am
     7     3     4    1
     8     3    32    1
     9     3    33    1
    10     4    13   ar
    11     4     5   ar
    12     5     6   ar
    13     5    34    1
    14     6     7   ar
    15     6    35    1
    16     7     8    1
    17     7    12   ar
    18     8     9    1
    19     8    10    2
    20     8    11    2
    21     9    36    1
    22     9    37    1
    23     9    38    1
    24    12    13   ar
    25    12    39    1
    26    13    40    1
    27    14    15    2
    28    14    16   am
    29    16    17    1
    30    16    41    1
    31    17    28    1
    32    17    18    1
    33    17    42    1
    34    18    19    1
    35    18    43    1
    36    18    44    1
    37    19    20    1
    38    19    45    1
    39    19    46    1
    40    20    21    1
    41    20    27    1
    42    21    26   ar
    43    21    22   ar
    44    22    23   ar
    45    22    47    1
    46    23    24   ar
    47    23    48    1
    48    24    25   ar
    49    24    49    1
    50    25    26   ar
    51    27    28    1
    52    27    50    1
    53    27    51    1
    54    28    52    1
    55    28    53    1
@<TRIPOS>SUBSTRUCTURE
     1 ZINC000429196987        1 TEMP              0 ****  ****    0 ROOT


##########                                Name:    ZINC000992031068
##########                DOCK_Rotatable_Bonds:                   8
##########                         Heavy_Atoms:                  25
##########                    Molecular_Weight:             342.401
##########                DOCK_Rotatable_Bonds:                   8
##########                       Formal_Charge:           0.0199999
##########                     HBond_Acceptors:                   8
##########                        HBond_Donors:                   2
##########                         Heavy_Atoms:                  25
##########                          Grid_Score:          -32.873131
##########                     Grid_vdw_energy:          -30.965586
##########                      Grid_es_energy:           -1.907545
##########           Internal_energy_repulsive:            7.766166

@<TRIPOS>MOLECULE
ZINC000992031068
 47 49 1 0 0
SMALL
USER_CHARGES


@<TRIPOS>ATOM
      1 C1         -6.6172    2.4968   52.6889 C.3     1  ZINC000992031068   -0.1100
      2 C2         -5.7673    1.6783   51.7515 C.ar    1  ZINC000992031068    0.1800
      3 C3         -4.5181    2.1347   51.3560 C.ar    1  ZINC000992031068   -0.1700
      4 C4         -3.7690    1.3404   50.4871 C.ar    1  ZINC000992031068    0.1300
      5 C5         -2.4259    1.7792   50.0319 C.2     1  ZINC000992031068    0.5700
      6 O6         -2.0706    2.9277   50.2065 O.2     1  ZINC000992031068   -0.5200
      7 N7         -1.6006    0.9036   49.4249 N.am    1  ZINC000992031068   -0.7100
      8 C8         -0.2745    1.3361   48.9772 C.3     1  ZINC000992031068    0.1300
      9 C9         -0.4003    2.0617   47.6361 C.3     1  ZINC000992031068   -0.1200
     10 C10         0.9058    2.0873   46.8246 C.3     1  ZINC000992031068   -0.1400
     11 C11         0.0430    1.8370   45.5766 C.3     1  ZINC000992031068    0.1200
     12 N12         0.6444    0.8985   44.6259 N.am    1  ZINC000992031068   -0.7200
     13 C13         1.3527    1.3626   43.5773 C.2     1  ZINC000992031068    0.5200
     14 O14         1.4934    2.5570   43.4216 O.2     1  ZINC000992031068   -0.5200
     15 C15         1.9699    0.3971   42.5985 C.3     1  ZINC000992031068   -0.0800
     16 C16         3.3440    0.0056   43.0778 C.2     1  ZINC000992031068    0.1000
     17 C17         3.7494   -0.0641   44.3669 C.2     1  ZINC000992031068   -0.2500
     18 C18         5.0895   -0.4648   44.3755 C.2     1  ZINC000992031068    0.0500
     19 N19         5.4747   -0.6297   43.1361 N.2     1  ZINC000992031068   -0.2900
     20 N20         4.3888   -0.3439   42.2985 N.pl3   1  ZINC000992031068   -0.3700
     21 C21         4.3900   -0.4048   40.8348 C.3     1  ZINC000992031068    0.1000
     22 C22        -0.9872    1.1874   46.5154 C.3     1  ZINC000992031068   -0.1400
     23 N23        -4.2784    0.1826   50.0737 N.ar    1  ZINC000992031068   -0.5000
     24 C24        -5.4683   -0.2103   50.4752 C.ar    1  ZINC000992031068    0.3000
     25 N25        -6.2001    0.5138   51.2996 N.ar    1  ZINC000992031068   -0.5100
     26 H26        -6.3903    2.2217   53.7190 H       1  ZINC000992031068    0.0900
     27 H27        -6.4054    3.5557   52.5406 H       1  ZINC000992031068    0.0900
     28 H28        -7.6707    2.3050   52.4854 H       1  ZINC000992031068    0.0900
     29 H29        -4.1356    3.0803   51.7110 H       1  ZINC000992031068    0.1600
     30 H30        -1.8847   -0.0132   49.2844 H       1  ZINC000992031068    0.4100
     31 H31         0.1562    2.0113   49.7167 H       1  ZINC000992031068    0.0700
     32 H32         0.3714    0.4658   48.8603 H       1  ZINC000992031068    0.0800
     33 H33        -0.8794    3.0366   47.7257 H       1  ZINC000992031068    0.1000
     34 H34         1.4013    3.0581   46.8254 H       1  ZINC000992031068    0.0800
     35 H35         1.5821    1.2655   47.0599 H       1  ZINC000992031068    0.0900
     36 H36        -0.3128    2.7511   45.1012 H       1  ZINC000992031068    0.1200
     37 H37         0.5330   -0.0569   44.7512 H       1  ZINC000992031068    0.4000
     38 H38         1.3447   -0.4924   42.5221 H       1  ZINC000992031068    0.1200
     39 H39         2.0478    0.8716   41.6203 H       1  ZINC000992031068    0.1100
     40 H40         3.1452    0.1519   45.2356 H       1  ZINC000992031068    0.1500
     41 H41         5.7008   -0.6120   45.2537 H       1  ZINC000992031068    0.1800
     42 H42         4.1000   -1.4048   40.5125 H       1  ZINC000992031068    0.0800
     43 H43         3.6815    0.3237   40.4403 H       1  ZINC000992031068    0.0800
     44 H44         5.3891   -0.1783   40.4625 H       1  ZINC000992031068    0.0900
     45 H45        -0.8284    0.1196   46.6661 H       1  ZINC000992031068    0.0900
     46 H46        -2.0199    1.4318   46.2665 H       1  ZINC000992031068    0.0800
     47 H47        -5.8552   -1.1548   50.1226 H       1  ZINC000992031068    0.2100
@<TRIPOS>BOND
     1     1     2    1
     2     1    26    1
     3     1    27    1
     4     1    28    1
     5     2    25   ar
     6     2     3   ar
     7     3     4   ar
     8     3    29    1
     9     4     5    1
    10     4    23   ar
    11     5     6    2
    12     5     7   am
    13     7     8    1
    14     7    30    1
    15     8     9    1
    16     8    31    1
    17     8    32    1
    18     9    22    1
    19     9    10    1
    20     9    33    1
    21    10    11    1
    22    10    34    1
    23    10    35    1
    24    11    12    1
    25    11    22    1
    26    11    36    1
    27    12    13   am
    28    12    37    1
    29    13    14    2
    30    13    15    1
    31    15    16    1
    32    15    38    1
    33    15    39    1
    34    16    20    1
    35    16    17    2
    36    17    18    1
    37    17    40    1
    38    18    19    2
    39    18    41    1
    40    19    20    1
    41    20    21    1
    42    21    42    1
    43    21    43    1
    44    21    44    1
    45    22    45    1
    46    22    46    1
    47    23    24   ar
    48    24    25   ar
    49    24    47    1
@<TRIPOS>SUBSTRUCTURE
     1 ZINC000992031068        1 TEMP              0 ****  ****    0 ROOT


##########                                Name:    ZINC001124460178
##########                DOCK_Rotatable_Bonds:                  12
##########                         Heavy_Atoms:                  22
##########                    Molecular_Weight:             328.479
##########                DOCK_Rotatable_Bonds:                  12
##########                       Formal_Charge:          -0.0100003
##########                     HBond_Acceptors:                   7
##########                        HBond_Donors:                   2
##########                         Heavy_Atoms:                  22
##########                          Grid_Score:          -32.863899
##########                     Grid_vdw_energy:          -32.424038
##########                      Grid_es_energy:           -0.439860
##########           Internal_energy_repulsive:           15.807269

@<TRIPOS>MOLECULE
ZINC001124460178
 50 50 1 0 0
SMALL
USER_CHARGES


@<TRIPOS>ATOM
      1 C1          0.2742    0.3690   47.3981 C.3     1  ZINC001124460178   -0.0700
      2 C2         -0.1394    0.9513   48.7252 C.2     1  ZINC001124460178    0.3100
      3 N3          0.6979    1.6369   49.4477 N.2     1  ZINC001124460178   -0.5000
      4 S4         -0.1628    2.0988   50.8385 S.3     1  ZINC001124460178    0.1800
      5 C5         -1.6264    1.3276   50.3566 C.2     1  ZINC001124460178    0.3400
      6 N6         -2.8246    1.2892   51.0465 N.pl3   1  ZINC001124460178   -0.6600
      7 C7         -4.0647    0.9534   50.3427 C.3     1  ZINC001124460178    0.0900
      8 C8         -5.2631    1.4340   51.1634 C.3     1  ZINC001124460178    0.0800
      9 H9         -5.5100    0.6870   51.9178 H       1  ZINC001124460178    0.1200
     10 O10        -4.9369    2.6687   51.8046 O.3     1  ZINC001124460178   -0.5500
     11 C11        -6.4643    1.6414   50.2388 C.3     1  ZINC001124460178    0.0900
     12 N12        -7.5328    2.3247   50.9719 N.am    1  ZINC001124460178   -0.6100
     13 C13        -7.7600    3.7577   50.7690 C.3     1  ZINC001124460178    0.0800
     14 C14        -8.3067    1.6351   51.8332 C.2     1  ZINC001124460178    0.5100
     15 O15        -8.1177    0.4491   52.0024 O.2     1  ZINC001124460178   -0.5400
     16 C16        -9.4071    2.3376   52.5861 C.3     1  ZINC001124460178   -0.1400
     17 C17       -10.4658    1.3180   53.0111 C.3     1  ZINC001124460178   -0.1100
     18 C18       -10.0819    0.7184   54.3653 C.3     1  ZINC001124460178   -0.1200
     19 C19       -11.2249   -0.1610   54.8762 C.3     1  ZINC001124460178   -0.1200
     20 C20       -10.7594   -0.9366   56.1100 C.3     1  ZINC001124460178   -0.1000
     21 C21       -10.5187    0.0382   57.2644 C.3     1  ZINC001124460178   -0.1500
     22 C22       -11.8347   -1.9479   56.5124 C.3     1  ZINC001124460178   -0.1500
     23 N23        -1.3575    0.7876   49.1866 N.2     1  ZINC001124460178   -0.5800
     24 H24         0.0792    1.0931   46.6070 H       1  ZINC001124460178    0.0900
     25 H25         1.3381    0.1331   47.4206 H       1  ZINC001124460178    0.0900
     26 H26        -0.2957   -0.5403   47.2069 H       1  ZINC001124460178    0.0900
     27 H27        -2.8437    1.4847   51.9965 H       1  ZINC001124460178    0.4200
     28 H28        -4.0728    1.4411   49.3679 H       1  ZINC001124460178    0.0800
     29 H29        -4.1256   -0.1267   50.2090 H       1  ZINC001124460178    0.0900
     30 H30        -4.6821    3.3738   51.1938 H       1  ZINC001124460178    0.3800
     31 H31        -6.1646    2.2480   49.3842 H       1  ZINC001124460178    0.0900
     32 H32        -6.8248    0.6741   49.8890 H       1  ZINC001124460178    0.1000
     33 H33        -8.4740    3.9010   49.9580 H       1  ZINC001124460178    0.0600
     34 H34        -8.1574    4.1958   51.6847 H       1  ZINC001124460178    0.0800
     35 H35        -6.8177    4.2423   50.5135 H       1  ZINC001124460178    0.0800
     36 H36        -8.9914    2.8199   53.4709 H       1  ZINC001124460178    0.0900
     37 H37        -9.8644    3.0898   51.9433 H       1  ZINC001124460178    0.0900
     38 H38       -11.4338    1.8125   53.0939 H       1  ZINC001124460178    0.0700
     39 H39       -10.5258    0.5245   52.2662 H       1  ZINC001124460178    0.0700
     40 H40        -9.1813    0.1147   54.2531 H       1  ZINC001124460178    0.0600
     41 H41        -9.8946    1.5213   55.0782 H       1  ZINC001124460178    0.0600
     42 H42       -12.0757    0.4667   55.1412 H       1  ZINC001124460178    0.0600
     43 H43       -11.5201   -0.8626   54.0960 H       1  ZINC001124460178    0.0600
     44 H44        -9.8332   -1.4633   55.8801 H       1  ZINC001124460178    0.0700
     45 H45       -11.4449    0.5649   57.4944 H       1  ZINC001124460178    0.0500
     46 H46       -10.1870   -0.5144   58.1435 H       1  ZINC001124460178    0.0500
     47 H47        -9.7526    0.7586   56.9779 H       1  ZINC001124460178    0.0500
     48 H48       -12.0062   -2.6424   55.6900 H       1  ZINC001124460178    0.0600
     49 H49       -11.5031   -2.5006   57.3914 H       1  ZINC001124460178    0.0500
     50 H50       -12.7609   -1.4214   56.7423 H       1  ZINC001124460178    0.0500
@<TRIPOS>BOND
     1     1     2    1
     2     1    24    1
     3     1    25    1
     4     1    26    1
     5     2    23    1
     6     2     3    2
     7     3     4    1
     8     4     5    1
     9     5     6    1
    10     5    23    2
    11     6     7    1
    12     6    27    1
    13     7     8    1
    14     7    28    1
    15     7    29    1
    16     8     9    1
    17     8    10    1
    18     8    11    1
    19    10    30    1
    20    11    12    1
    21    11    31    1
    22    11    32    1
    23    12    13    1
    24    12    14   am
    25    13    33    1
    26    13    34    1
    27    13    35    1
    28    14    15    2
    29    14    16    1
    30    16    17    1
    31    16    36    1
    32    16    37    1
    33    17    18    1
    34    17    38    1
    35    17    39    1
    36    18    19    1
    37    18    40    1
    38    18    41    1
    39    19    20    1
    40    19    42    1
    41    19    43    1
    42    20    21    1
    43    20    22    1
    44    20    44    1
    45    21    45    1
    46    21    46    1
    47    21    47    1
    48    22    48    1
    49    22    49    1
    50    22    50    1
@<TRIPOS>SUBSTRUCTURE
     1 ZINC001124460178        1 TEMP              0 ****  ****    0 ROOT


##########                                Name:    ZINC000851838607
##########                DOCK_Rotatable_Bonds:                  12
##########                         Heavy_Atoms:                  23
##########                    Molecular_Weight:             352.495
##########                DOCK_Rotatable_Bonds:                  12
##########                       Formal_Charge:          0.00999896
##########                     HBond_Acceptors:                   8
##########                        HBond_Donors:                   2
##########                         Heavy_Atoms:                  23
##########                          Grid_Score:          -32.846363
##########                     Grid_vdw_energy:          -33.431309
##########                      Grid_es_energy:            0.584947
##########           Internal_energy_repulsive:           19.754263

@<TRIPOS>MOLECULE
ZINC000851838607
 55 54 1 0 0
SMALL
USER_CHARGES


@<TRIPOS>ATOM
      1 C1         -9.5197    0.8299   53.1751 C.3     1  ZINC000851838607    0.0300
      2 O2         -8.4256    0.7694   52.2578 O.3     1  ZINC000851838607   -0.3800
      3 C3         -8.1333    2.0138   51.6189 C.3     1  ZINC000851838607    0.0800
      4 C4         -7.0247    1.8081   50.5847 C.3     1  ZINC000851838607   -0.6000
      5 H5         -7.2658    0.9482   49.9597 H       1  ZINC000851838607    0.1400
      6 C6         -6.9055    3.0574   49.7094 C.3     1  ZINC000851838607   -0.1400
      7 S7         -5.4503    1.5140   51.4363 S.o2    1  ZINC000851838607    2.6200
      8 O8         -5.1396    2.5996   52.2989 O.2     1  ZINC000851838607   -0.9400
      9 O9         -5.3737    0.1705   51.8928 O.2     1  ZINC000851838607   -0.9500
     10 N10        -4.3097    1.6041   50.2391 N.am    1  ZINC000851838607   -1.1200
     11 C11        -2.8933    1.4138   50.5609 C.3     1  ZINC000851838607    0.1100
     12 C12        -2.0376    2.2624   49.6182 C.3     1  ZINC000851838607   -0.1400
     13 C13        -0.5688    1.8580   49.7596 C.3     1  ZINC000851838607    0.1700
     14 H14        -0.5026    0.7834   49.9296 H       1  ZINC000851838607    0.1000
     15 N15         0.1530    2.2036   48.5325 N.am    1  ZINC000851838607   -0.7100
     16 C16         0.3303    1.2761   47.5709 C.2     1  ZINC000851838607    0.6500
     17 O17        -0.1099    0.1534   47.7212 O.2     1  ZINC000851838607   -0.5600
     18 O18         0.9951    1.5932   46.4440 O.3     1  ZINC000851838607   -0.3700
     19 C19         0.2283    2.2148   45.3790 C.3     1  ZINC000851838607    0.1400
     20 C20         1.0888    2.3061   44.1173 C.3     1  ZINC000851838607   -0.1800
     21 C21        -1.0157    1.3730   45.0881 C.3     1  ZINC000851838607   -0.1400
     22 C22        -0.1963    3.6202   45.8096 C.3     1  ZINC000851838607   -0.1800
     23 C23         0.0531    2.6010   50.9436 C.3     1  ZINC000851838607   -0.1100
     24 C24         1.3182    1.8697   51.3970 C.3     1  ZINC000851838607   -0.1500
     25 C25         0.4123    4.0265   50.5194 C.3     1  ZINC000851838607   -0.1400
     26 H26        -9.2950    1.5503   53.9616 H       1  ZINC000851838607    0.0400
     27 H27       -10.4209    1.1392   52.6458 H       1  ZINC000851838607    0.0500
     28 H28        -9.6776   -0.1537   53.6176 H       1  ZINC000851838607    0.0900
     29 H29        -9.0291    2.3862   51.1220 H       1  ZINC000851838607    0.0700
     30 H30        -7.8044    2.7369   52.3652 H       1  ZINC000851838607    0.0600
     31 H31        -6.0575    2.9477   49.0333 H       1  ZINC000851838607    0.0700
     32 H32        -7.8194    3.1826   49.1287 H       1  ZINC000851838607    0.0900
     33 H33        -6.7546    3.9316   50.3427 H       1  ZINC000851838607    0.0700
     34 H34        -4.5796    1.7829   49.3246 H       1  ZINC000851838607    0.4200
     35 H35        -2.7106    1.7189   51.5912 H       1  ZINC000851838607    0.0700
     36 H36        -2.6317    0.3624   50.4416 H       1  ZINC000851838607    0.0800
     37 H37        -2.3614    2.1017   48.5900 H       1  ZINC000851838607    0.0800
     38 H38        -2.1507    3.3159   49.8743 H       1  ZINC000851838607    0.1000
     39 H39         0.5033    3.1001   48.4120 H       1  ZINC000851838607    0.4100
     40 H40         1.3913    1.3048   43.8105 H       1  ZINC000851838607    0.0600
     41 H41         0.5132    2.7727   43.3179 H       1  ZINC000851838607    0.0700
     42 H42         1.9751    2.9058   44.3245 H       1  ZINC000851838607    0.0900
     43 H43        -1.6288    1.3079   45.9870 H       1  ZINC000851838607    0.0700
     44 H44        -1.5914    1.8395   44.2887 H       1  ZINC000851838607    0.0800
     45 H45        -0.7133    0.3717   44.7813 H       1  ZINC000851838607    0.0700
     46 H46         0.6900    4.2200   46.0169 H       1  ZINC000851838607    0.0900
     47 H47        -0.7719    4.0868   45.0102 H       1  ZINC000851838607    0.0700
     48 H48        -0.8094    3.5552   46.7086 H       1  ZINC000851838607    0.0600
     49 H49        -0.6610    2.6358   51.7664 H       1  ZINC000851838607    0.0700
     50 H50         2.0323    1.8349   50.5742 H       1  ZINC000851838607    0.0600
     51 H51         1.7613    2.3992   52.2405 H       1  ZINC000851838607    0.0600
     52 H52         1.0624    0.8543   51.6992 H       1  ZINC000851838607    0.0600
     53 H53        -0.4890    4.5474   50.1963 H       1  ZINC000851838607    0.0500
     54 H54         0.8554    4.5558   51.3628 H       1  ZINC000851838607    0.0500
     55 H55         1.1264    3.9916   49.6966 H       1  ZINC000851838607    0.0700
@<TRIPOS>BOND
     1     1     2    1
     2     1    26    1
     3     1    27    1
     4     1    28    1
     5     2     3    1
     6     3     4    1
     7     3    29    1
     8     3    30    1
     9     4     5    1
    10     4     6    1
    11     4     7    1
    12     6    31    1
    13     6    32    1
    14     6    33    1
    15     7     8    2
    16     7     9    2
    17     7    10   am
    18    10    11    1
    19    10    34    1
    20    11    12    1
    21    11    35    1
    22    11    36    1
    23    12    13    1
    24    12    37    1
    25    12    38    1
    26    13    14    1
    27    13    15    1
    28    13    23    1
    29    15    16   am
    30    15    39    1
    31    16    17    2
    32    16    18    1
    33    18    19    1
    34    19    20    1
    35    19    21    1
    36    19    22    1
    37    20    40    1
    38    20    41    1
    39    20    42    1
    40    21    43    1
    41    21    44    1
    42    21    45    1
    43    22    46    1
    44    22    47    1
    45    22    48    1
    46    23    24    1
    47    23    25    1
    48    23    49    1
    49    24    50    1
    50    24    51    1
    51    24    52    1
    52    25    53    1
    53    25    54    1
    54    25    55    1
@<TRIPOS>SUBSTRUCTURE
     1 ZINC000851838607        1 TEMP              0 ****  ****    0 ROOT


##########                                Name:    ZINC000051488227
##########                DOCK_Rotatable_Bonds:                   8
##########                         Heavy_Atoms:                  30
##########                    Molecular_Weight:             403.478
##########                DOCK_Rotatable_Bonds:                   8
##########                       Formal_Charge:           0.0199996
##########                     HBond_Acceptors:                   5
##########                        HBond_Donors:                   0
##########                         Heavy_Atoms:                  30
##########                          Grid_Score:          -32.835625
##########                     Grid_vdw_energy:          -32.535080
##########                      Grid_es_energy:           -0.300543
##########           Internal_energy_repulsive:           23.327965

@<TRIPOS>MOLECULE
ZINC000051488227
 55 58 1 0 0
SMALL
USER_CHARGES


@<TRIPOS>ATOM
      1 O1         -0.5692    4.2334   49.7440 O.2     1  ZINC000051488227   -0.5000
      2 C2         -0.6625    3.0658   49.4472 C.2     1  ZINC000051488227    0.4800
      3 O3         -1.6640    2.3244   49.9461 O.3     1  ZINC000051488227   -0.3400
      4 C4         -2.1305    2.6587   51.2799 C.3     1  ZINC000051488227    0.1100
      5 C5         -3.5785    2.2649   51.4190 C.ar    1  ZINC000051488227   -0.1400
      6 C6         -4.0057    1.0325   50.9603 C.ar    1  ZINC000051488227   -0.0500
      7 C7         -5.3325    0.6691   51.0865 C.ar    1  ZINC000051488227   -0.1500
      8 C8         -6.2365    1.5419   51.6747 C.ar    1  ZINC000051488227    0.1500
      9 O9         -7.5422    1.1865   51.8005 O.3     1  ZINC000051488227   -0.3100
     10 C10        -8.3695    2.0299   52.6044 C.3     1  ZINC000051488227    0.1100
     11 C11        -9.7241    1.3914   52.7731 C.ar    1  ZINC000051488227    0.1200
     12 C12        -9.9613    0.5697   53.8584 C.ar    1  ZINC000051488227   -0.1500
     13 C13       -11.2114   -0.0126   54.0046 C.ar    1  ZINC000051488227   -0.0700
     14 C14       -12.1797    0.2551   53.0493 C.ar    1  ZINC000051488227   -0.1700
     15 C15       -11.8692    1.0876   51.9903 C.ar    1  ZINC000051488227    0.1100
     16 N16       -10.6710    1.6279   51.8861 N.ar    1  ZINC000051488227   -0.4800
     17 C17        -5.8053    2.7776   52.1345 C.ar    1  ZINC000051488227   -0.2100
     18 C18        -4.4765    3.1343   52.0102 C.ar    1  ZINC000051488227   -0.0500
     19 C19         0.3420    2.4437   48.5118 C.3     1  ZINC000051488227    0.0000
     20 C20         1.5090    1.9145   49.3049 C.ar    1  ZINC000051488227   -0.0900
     21 C21         2.6388    1.4587   48.6515 C.ar    1  ZINC000051488227   -0.1100
     22 C22         3.7094    0.9734   49.3790 C.ar    1  ZINC000051488227   -0.1200
     23 C23         3.6504    0.9443   50.7597 C.ar    1  ZINC000051488227   -0.1100
     24 C24         2.5210    1.4009   51.4131 C.ar    1  ZINC000051488227   -0.1200
     25 C25         1.4522    1.8903   50.6858 C.ar    1  ZINC000051488227   -0.1000
     26 C26        -0.3180    1.2966   47.7406 C.3     1  ZINC000051488227   -0.1400
     27 C27        -1.4524    1.8573   46.8790 C.3     1  ZINC000051488227    0.0600
     28 O28        -0.9311    2.8531   45.9965 O.3     1  ZINC000051488227   -0.3800
     29 C29        -0.3438    3.9730   46.6624 C.3     1  ZINC000051488227    0.0500
     30 C30         0.8352    3.4971   47.5152 C.3     1  ZINC000051488227   -0.1400
     31 H31        -1.5354    2.1216   52.0183 H       1  ZINC000051488227    0.0800
     32 H32        -2.0287    3.7318   51.4420 H       1  ZINC000051488227    0.0800
     33 H33        -3.3015    0.3535   50.5025 H       1  ZINC000051488227    0.1300
     34 H34        -5.6658   -0.2933   50.7275 H       1  ZINC000051488227    0.1400
     35 H35        -7.9077    2.1662   53.5824 H       1  ZINC000051488227    0.0900
     36 H36        -8.4824    2.9986   52.1177 H       1  ZINC000051488227    0.0900
     37 H37        -9.1830    0.3828   54.5833 H       1  ZINC000051488227    0.1400
     38 H38       -11.4254   -0.6594   54.8425 H       1  ZINC000051488227    0.1400
     39 H39       -13.1641   -0.1815   53.1312 H       1  ZINC000051488227    0.1400
     40 H40       -12.6179    1.3008   51.2417 H       1  ZINC000051488227    0.1600
     41 H41        -6.5072    3.4589   52.5923 H       1  ZINC000051488227    0.1300
     42 H42        -4.1402    4.0961   52.3684 H       1  ZINC000051488227    0.1300
     43 H43         2.6848    1.4815   47.5728 H       1  ZINC000051488227    0.1300
     44 H44         4.5917    0.6166   48.8686 H       1  ZINC000051488227    0.1300
     45 H45         4.4866    0.5644   51.3281 H       1  ZINC000051488227    0.1200
     46 H46         2.4749    1.3779   52.4919 H       1  ZINC000051488227    0.1200
     47 H47         0.5698    2.2470   51.1963 H       1  ZINC000051488227    0.1300
     48 H48         0.4214    0.8149   47.1006 H       1  ZINC000051488227    0.0900
     49 H49        -0.7211    0.5686   48.4447 H       1  ZINC000051488227    0.0900
     50 H50        -1.8980    1.0518   46.2954 H       1  ZINC000051488227    0.1000
     51 H51        -2.2112    2.3030   47.5223 H       1  ZINC000051488227    0.0500
     52 H52         0.0092    4.6914   45.9226 H       1  ZINC000051488227    0.1000
     53 H53        -1.0880    4.4463   47.3027 H       1  ZINC000051488227    0.0700
     54 H54         1.2568    4.3430   48.0581 H       1  ZINC000051488227    0.0900
     55 H55         1.5978    3.0599   46.8707 H       1  ZINC000051488227    0.0900
@<TRIPOS>BOND
     1     1     2    2
     2     2     3    1
     3     2    19    1
     4     3     4    1
     5     4     5    1
     6     4    31    1
     7     4    32    1
     8     5    18   ar
     9     5     6   ar
    10     6     7   ar
    11     6    33    1
    12     7     8   ar
    13     7    34    1
    14     8     9    1
    15     8    17   ar
    16     9    10    1
    17    10    11    1
    18    10    35    1
    19    10    36    1
    20    11    16   ar
    21    11    12   ar
    22    12    13   ar
    23    12    37    1
    24    13    14   ar
    25    13    38    1
    26    14    15   ar
    27    14    39    1
    28    15    16   ar
    29    15    40    1
    30    17    18   ar
    31    17    41    1
    32    18    42    1
    33    19    30    1
    34    19    20    1
    35    19    26    1
    36    20    25   ar
    37    20    21   ar
    38    21    22   ar
    39    21    43    1
    40    22    23   ar
    41    22    44    1
    42    23    24   ar
    43    23    45    1
    44    24    25   ar
    45    24    46    1
    46    25    47    1
    47    26    27    1
    48    26    48    1
    49    26    49    1
    50    27    28    1
    51    27    50    1
    52    27    51    1
    53    28    29    1
    54    29    30    1
    55    29    52    1
    56    29    53    1
    57    30    54    1
    58    30    55    1
@<TRIPOS>SUBSTRUCTURE
     1 ZINC000051488227        1 TEMP              0 ****  ****    0 ROOT


##########                                Name:    ZINC000190927708
##########                DOCK_Rotatable_Bonds:                  10
##########                         Heavy_Atoms:                  26
##########                    Molecular_Weight:             358.437
##########                DOCK_Rotatable_Bonds:                  10
##########                       Formal_Charge:           0.0499998
##########                     HBond_Acceptors:                   6
##########                        HBond_Donors:                   1
##########                         Heavy_Atoms:                  26
##########                          Grid_Score:          -32.815033
##########                     Grid_vdw_energy:          -32.913086
##########                      Grid_es_energy:            0.098053
##########           Internal_energy_repulsive:           22.661127

@<TRIPOS>MOLECULE
ZINC000190927708
 52 53 1 0 0
SMALL
USER_CHARGES


@<TRIPOS>ATOM
      1 C1         -0.0023    1.0062   44.4019 C.3     1  ZINC000190927708   -0.1500
      2 C2         -0.7485    1.1762   45.7268 C.3     1  ZINC000190927708   -0.1500
      3 C3         -0.0113    2.1930   46.6006 C.3     1  ZINC000190927708    0.1000
      4 N4         -0.1375    1.8092   48.0087 N.am    1  ZINC000190927708   -0.5900
      5 C5         -1.3509    1.7882   48.5953 C.2     1  ZINC000190927708    0.5300
      6 O6         -2.3378    2.0886   47.9577 O.2     1  ZINC000190927708   -0.5300
      7 C7         -1.4809    1.3918   50.0433 C.3     1  ZINC000190927708   -0.0800
      8 C8         -2.8866    1.6630   50.5141 C.2     1  ZINC000190927708   -0.1700
      9 C9         -3.8288    0.6920   50.4224 C.2     1  ZINC000190927708    0.0000
     10 C10        -5.1848    0.9872   50.8889 C.ar    1  ZINC000190927708   -0.1300
     11 C11        -6.1984    0.0262   50.8210 C.ar    1  ZINC000190927708   -0.0500
     12 C12        -7.4535    0.3329   51.2657 C.ar    1  ZINC000190927708   -0.1500
     13 C13        -7.7314    1.5899   51.7842 C.ar    1  ZINC000190927708   -0.0600
     14 C14        -6.7480    2.5528   51.8605 C.ar    1  ZINC000190927708   -0.1600
     15 C15        -5.4630    2.2634   51.4144 C.ar    1  ZINC000190927708    0.1900
     16 N16        -4.4600    3.2071   51.4792 N.am    1  ZINC000190927708   -0.6300
     17 C17        -3.2161    2.9246   51.0540 C.2     1  ZINC000190927708    0.5500
     18 O18        -2.3542    3.7834   51.1263 O.2     1  ZINC000190927708   -0.5300
     19 C19         1.0549    1.4482   48.7794 C.3     1  ZINC000190927708    0.1500
     20 H20         0.7561    0.9203   49.6851 H       1  ZINC000190927708    0.1400
     21 C21         1.8209    2.7173   49.1580 C.3     1  ZINC000190927708   -0.1300
     22 C22         2.4973    2.5189   50.5159 C.3     1  ZINC000190927708   -0.1500
     23 C23         1.9400    0.5566   47.9472 C.2     1  ZINC000190927708    0.4500
     24 O24         1.4769   -0.4199   47.4069 O.2     1  ZINC000190927708   -0.5000
     25 O25         3.2428    0.8472   47.8061 O.3     1  ZINC000190927708   -0.3500
     26 C26         3.6654    1.3731   46.5204 C.3     1  ZINC000190927708    0.0600
     27 C27         5.1826    1.5703   46.5238 C.3     1  ZINC000190927708   -0.1500
     28 H28         1.0095    0.6510   44.5978 H       1  ZINC000190927708    0.0600
     29 H29        -0.5275    0.2819   43.7795 H       1  ZINC000190927708    0.0600
     30 H30         0.0429    1.9646   43.8847 H       1  ZINC000190927708    0.0600
     31 H31        -1.7602    1.5315   45.5309 H       1  ZINC000190927708    0.0800
     32 H32        -0.7937    0.2178   46.2440 H       1  ZINC000190927708    0.0700
     33 H33         1.0426    2.2143   46.3228 H       1  ZINC000190927708    0.0900
     34 H34        -0.4460    3.1816   46.4531 H       1  ZINC000190927708    0.0900
     35 H35        -1.2604    0.3297   50.1505 H       1  ZINC000190927708    0.1100
     36 H36        -0.7788    1.9709   50.6431 H       1  ZINC000190927708    0.1200
     37 H37        -3.5843   -0.2774   50.0140 H       1  ZINC000190927708    0.1400
     38 H38        -5.9902   -0.9542   50.4186 H       1  ZINC000190927708    0.1400
     39 H39        -8.2363   -0.4094   51.2128 H       1  ZINC000190927708    0.1300
     40 H40        -8.7289    1.8162   52.1314 H       1  ZINC000190927708    0.1300
     41 H41        -6.9744    3.5280   52.2656 H       1  ZINC000190927708    0.1300
     42 H42        -4.6535    4.0863   51.8406 H       1  ZINC000190927708    0.4200
     43 H43         2.5781    2.9240   48.4016 H       1  ZINC000190927708    0.0900
     44 H44         1.1275    3.5564   49.2166 H       1  ZINC000190927708    0.0800
     45 H45         3.0430    3.4231   50.7857 H       1  ZINC000190927708    0.0600
     46 H46         1.7401    2.3122   51.2722 H       1  ZINC000190927708    0.0600
     47 H47         3.1907    1.6799   50.4572 H       1  ZINC000190927708    0.0600
     48 H48         3.3921    0.6707   45.7329 H       1  ZINC000190927708    0.0700
     49 H49         3.1750    2.3298   46.3402 H       1  ZINC000190927708    0.0700
     50 H50         5.4560    2.2727   47.3112 H       1  ZINC000190927708    0.0700
     51 H51         5.6730    0.6137   46.7039 H       1  ZINC000190927708    0.0700
     52 H52         5.4998    1.9652   45.5585 H       1  ZINC000190927708    0.0800
@<TRIPOS>BOND
     1     1     2    1
     2     1    28    1
     3     1    29    1
     4     1    30    1
     5     2     3    1
     6     2    31    1
     7     2    32    1
     8     3     4    1
     9     3    33    1
    10     3    34    1
    11     4     5   am
    12     4    19    1
    13     5     6    2
    14     5     7    1
    15     7     8    1
    16     7    35    1
    17     7    36    1
    18     8    17    1
    19     8     9    2
    20     9    10    1
    21     9    37    1
    22    10    15   ar
    23    10    11   ar
    24    11    12   ar
    25    11    38    1
    26    12    13   ar
    27    12    39    1
    28    13    14   ar
    29    13    40    1
    30    14    15   ar
    31    14    41    1
    32    15    16    1
    33    16    17   am
    34    16    42    1
    35    17    18    2
    36    19    20    1
    37    19    21    1
    38    19    23    1
    39    21    22    1
    40    21    43    1
    41    21    44    1
    42    22    45    1
    43    22    46    1
    44    22    47    1
    45    23    24    2
    46    23    25    1
    47    25    26    1
    48    26    27    1
    49    26    48    1
    50    26    49    1
    51    27    50    1
    52    27    51    1
    53    27    52    1
@<TRIPOS>SUBSTRUCTURE
     1 ZINC000190927708        1 TEMP              0 ****  ****    0 ROOT


##########                                Name:    ZINC000185180600
##########                DOCK_Rotatable_Bonds:                   7
##########                         Heavy_Atoms:                  26
##########                    Molecular_Weight:             395.953
##########                DOCK_Rotatable_Bonds:                   7
##########                       Formal_Charge:          0.00999977
##########                     HBond_Acceptors:                   7
##########                        HBond_Donors:                   0
##########                         Heavy_Atoms:                  26
##########                          Grid_Score:          -32.792236
##########                     Grid_vdw_energy:          -31.595970
##########                      Grid_es_energy:           -1.196267
##########           Internal_energy_repulsive:           22.257170

@<TRIPOS>MOLECULE
ZINC000185180600
 52 53 1 0 0
SMALL
USER_CHARGES


@<TRIPOS>ATOM
      1 C1          4.5503    1.5555   47.7840 C.3     1  ZINC000185180600   -0.1500
      2 C2          4.0468    2.5957   46.7813 C.3     1  ZINC000185180600   -0.0900
      3 C3          4.8424    3.8919   46.9484 C.3     1  ZINC000185180600   -0.1500
      4 C4          4.2313    2.0638   45.3587 C.3     1  ZINC000185180600   -0.1300
      5 C5          3.1325    1.0453   45.0486 C.3     1  ZINC000185180600    0.1300
      6 H6          2.8563    0.5193   45.9624 H       1  ZINC000185180600    0.1100
      7 C7          3.6461    0.0395   44.0164 C.3     1  ZINC000185180600   -0.1600
      8 N8          1.9599    1.7403   44.5117 N.am    1  ZINC000185180600   -0.6000
      9 C9          2.0365    2.4083   43.2101 C.3     1  ZINC000185180600    0.0700
     10 C10         0.8106    1.7651   45.2152 C.2     1  ZINC000185180600    0.5400
     11 O11        -0.1606    2.3393   44.7700 O.2     1  ZINC000185180600   -0.5300
     12 C12         0.7321    1.0797   46.5550 C.3     1  ZINC000185180600   -0.5000
     13 S13        -0.6406    1.7792   47.5126 S.o     1  ZINC000185180600    1.3200
     14 O14        -0.3833    3.1517   47.7761 O.2     1  ZINC000185180600   -0.8000
     15 C15        -0.5741    0.8428   49.0648 C.3     1  ZINC000185180600   -0.3900
     16 C16        -1.6710    1.3151   49.9838 C.2     1  ZINC000185180600    0.1000
     17 N17        -2.9093    0.8913   49.9813 N.2     1  ZINC000185180600   -0.2800
     18 N18        -3.6086    1.5758   50.9839 N.pl3   1  ZINC000185180600   -0.3200
     19 C19        -4.9634    1.4103   51.3051 C.ar    1  ZINC000185180600    0.1700
     20 C20        -5.6954    0.3837   50.7239 C.ar    1  ZINC000185180600   -0.1300
     21 C21        -7.0297    0.2228   51.0418 C.ar    1  ZINC000185180600   -0.0800
     22 C22        -7.6373    1.0842   51.9385 C.ar    1  ZINC000185180600   -0.0500
     23 Cl23       -9.3147    0.8794   52.3362 Cl      1  ZINC000185180600   -0.0600
     24 C24        -6.9096    2.1082   52.5192 C.ar    1  ZINC000185180600   -0.0800
     25 C25        -5.5735    2.2694   52.2090 C.ar    1  ZINC000185180600   -0.1100
     26 C26        -2.7456    2.4243   51.5868 C.2     1  ZINC000185180600    0.0600
     27 C27        -1.5396    2.2776   50.9907 C.2     1  ZINC000185180600   -0.2500
     28 H28         4.4189    1.9344   48.7976 H       1  ZINC000185180600    0.0500
     29 H29         3.9836    0.6321   47.6651 H       1  ZINC000185180600    0.0600
     30 H30         5.6072    1.3590   47.6038 H       1  ZINC000185180600    0.0500
     31 H31         2.9900    2.7924   46.9616 H       1  ZINC000185180600    0.0700
     32 H32         4.6457    4.3147   47.9336 H       1  ZINC000185180600    0.0500
     33 H33         5.9071    3.6800   46.8499 H       1  ZINC000185180600    0.0500
     34 H34         4.5413    4.6045   46.1806 H       1  ZINC000185180600    0.0500
     35 H35         4.1706    2.8906   44.6510 H       1  ZINC000185180600    0.0700
     36 H36         5.2061    1.5837   45.2738 H       1  ZINC000185180600    0.0800
     37 H37         3.9223    0.5656   43.1025 H       1  ZINC000185180600    0.0600
     38 H38         4.5186   -0.4776   44.4159 H       1  ZINC000185180600    0.0700
     39 H39         2.8633   -0.6862   43.7954 H       1  ZINC000185180600    0.0600
     40 H40         1.7536    1.7072   42.4248 H       1  ZINC000185180600    0.0600
     41 H41         1.3570    3.2604   43.1984 H       1  ZINC000185180600    0.0700
     42 H42         3.0559    2.7539   43.0386 H       1  ZINC000185180600    0.0800
     43 H43         0.5658    0.0125   46.4079 H       1  ZINC000185180600    0.1500
     44 H44         1.6664    1.2307   47.0956 H       1  ZINC000185180600    0.1200
     45 H45        -0.7077   -0.2185   48.8550 H       1  ZINC000185180600    0.1400
     46 H46         0.3929    0.9998   49.5428 H       1  ZINC000185180600    0.1000
     47 H47        -5.2218   -0.2883   50.0234 H       1  ZINC000185180600    0.1400
     48 H48        -7.5996   -0.5756   50.5899 H       1  ZINC000185180600    0.1500
     49 H49        -7.3860    2.7794   53.2184 H       1  ZINC000185180600    0.1400
     50 H50        -5.0061    3.0687   52.6624 H       1  ZINC000185180600    0.1500
     51 H51        -2.9762    3.0952   52.4012 H       1  ZINC000185180600    0.1800
     52 H52        -0.6370    2.8144   51.2426 H       1  ZINC000185180600    0.1700
@<TRIPOS>BOND
     1     1     2    1
     2     1    28    1
     3     1    29    1
     4     1    30    1
     5     2     3    1
     6     2     4    1
     7     2    31    1
     8     3    32    1
     9     3    33    1
    10     3    34    1
    11     4     5    1
    12     4    35    1
    13     4    36    1
    14     5     6    1
    15     5     7    1
    16     5     8    1
    17     7    37    1
    18     7    38    1
    19     7    39    1
    20     8     9    1
    21     8    10   am
    22     9    40    1
    23     9    41    1
    24     9    42    1
    25    10    11    2
    26    10    12    1
    27    12    13    1
    28    12    43    1
    29    12    44    1
    30    13    14    2
    31    13    15    1
    32    15    16    1
    33    15    45    1
    34    15    46    1
    35    16    27    1
    36    16    17    2
    37    17    18    1
    38    18    19    1
    39    18    26    1
    40    19    25   ar
    41    19    20   ar
    42    20    21   ar
    43    20    47    1
    44    21    22   ar
    45    21    48    1
    46    22    23    1
    47    22    24   ar
    48    24    25   ar
    49    24    49    1
    50    25    50    1
    51    26    27    2
    52    26    51    1
    53    27    52    1
@<TRIPOS>SUBSTRUCTURE
     1 ZINC000185180600        1 TEMP              0 ****  ****    0 ROOT


##########                                Name:    ZINC001570985666
##########                DOCK_Rotatable_Bonds:                   7
##########                         Heavy_Atoms:                  26
##########                    Molecular_Weight:             357.415
##########                DOCK_Rotatable_Bonds:                   7
##########                       Formal_Charge:          -0.0100001
##########                     HBond_Acceptors:                   9
##########                        HBond_Donors:                   3
##########                         Heavy_Atoms:                  26
##########                          Grid_Score:          -32.782700
##########                     Grid_vdw_energy:          -32.736710
##########                      Grid_es_energy:           -0.045989
##########           Internal_energy_repulsive:           11.358706

@<TRIPOS>MOLECULE
ZINC001570985666
 49 52 1 0 0
SMALL
USER_CHARGES


@<TRIPOS>ATOM
      1 C1         -0.1010    2.2340   48.5760 C.3     1  ZINC001570985666   -0.1600
      2 C2         -0.2758    1.8922   50.0571 C.3     1  ZINC001570985666    0.1300
      3 H3         -0.5386    0.8400   50.1660 H       1  ZINC001570985666    0.0800
      4 C4         -1.3812    2.7758   50.6728 C.3     1  ZINC001570985666    0.1400
      5 H5         -1.5110    3.6903   50.0939 H       1  ZINC001570985666    0.1100
      6 N6         -2.6438    2.0383   50.7632 N.am    1  ZINC001570985666   -0.7200
      7 C7         -3.7780    2.6830   51.1015 C.2     1  ZINC001570985666    0.6000
      8 O8         -3.7536    3.8773   51.3301 O.2     1  ZINC001570985666   -0.5300
      9 C9         -5.0473    1.9411   51.1943 C.2     1  ZINC001570985666   -0.2300
     10 C10        -5.2707    0.6436   50.7870 C.2     1  ZINC001570985666    0.0700
     11 N11        -6.5577    0.3362   51.0435 N.pl3   1  ZINC001570985666   -0.5200
     12 C12        -7.1773    1.4204   51.6145 C.2     1  ZINC001570985666    0.0600
     13 C13        -8.5930    1.4818   52.0418 C.2     1  ZINC001570985666    0.2500
     14 N14        -9.4860    0.5143   51.9532 N.2     1  ZINC001570985666   -0.3100
     15 N15       -10.5976    0.9594   52.4299 N.pl3   1  ZINC001570985666   -0.2200
     16 N16       -10.4386    2.1765   52.8174 N.2     1  ZINC001570985666   -0.0400
     17 N17        -9.2174    2.5300   52.6000 N.2     1  ZINC001570985666   -0.2600
     18 C18        -6.2711    2.4243   51.7258 C.2     1  ZINC001570985666   -0.0600
     19 C19        -0.8247    3.0947   52.0855 C.3     1  ZINC001570985666   -0.1500
     20 C20         0.6940    3.2103   51.8027 C.3     1  ZINC001570985666    0.1000
     21 N21         0.9695    2.1745   50.7858 N.am    1  ZINC001570985666   -0.6200
     22 C22         2.1633    1.5895   50.5640 C.2     1  ZINC001570985666    0.5300
     23 O23         2.2745    0.7480   49.6978 O.2     1  ZINC001570985666   -0.5300
     24 C24         3.3599    1.9813   51.3920 C.3     1  ZINC001570985666   -0.1300
     25 C25         4.4427    0.9081   51.2631 C.3     1  ZINC001570985666   -0.1000
     26 C26         5.4111    0.8636   52.4569 C.3     1  ZINC001570985666   -0.1300
     27 C27         5.3569   -0.6691   52.3427 C.3     1  ZINC001570985666   -0.1400
     28 C28         3.9753   -0.4932   51.6908 C.3     1  ZINC001570985666   -0.1400
     29 H29         0.6848    1.6104   48.1495 H       1  ZINC001570985666    0.0700
     30 H30        -1.0368    2.0512   48.0481 H       1  ZINC001570985666    0.0700
     31 H31         0.1738    3.2840   48.4755 H       1  ZINC001570985666    0.0600
     32 H32        -2.6635    1.0860   50.5798 H       1  ZINC001570985666    0.4000
     33 H33        -4.5403   -0.0137   50.3388 H       1  ZINC001570985666    0.1800
     34 H34        -6.9797   -0.5163   50.8543 H       1  ZINC001570985666    0.4300
     35 H35       -11.4248    0.4561   52.4874 H       1  ZINC001570985666    0.4800
     36 H36        -6.4494    3.4076   52.1354 H       1  ZINC001570985666    0.1600
     37 H37        -1.2254    4.0368   52.4597 H       1  ZINC001570985666    0.0900
     38 H38        -1.0319    2.2805   52.7800 H       1  ZINC001570985666    0.0800
     39 H39         0.9330    4.1996   51.4127 H       1  ZINC001570985666    0.0800
     40 H40         1.2649    3.0110   52.7096 H       1  ZINC001570985666    0.0800
     41 H41         3.7501    2.9355   51.0381 H       1  ZINC001570985666    0.0900
     42 H42         3.0637    2.0748   52.4368 H       1  ZINC001570985666    0.0900
     43 H43         4.9422    0.9250   50.2944 H       1  ZINC001570985666    0.1000
     44 H44         6.3931    1.2832   52.2385 H       1  ZINC001570985666    0.0700
     45 H45         4.9816    1.2479   53.3821 H       1  ZINC001570985666    0.0800
     46 H46         6.1077   -1.0836   51.6699 H       1  ZINC001570985666    0.0800
     47 H47         5.3235   -1.1778   53.3062 H       1  ZINC001570985666    0.0700
     48 H48         3.1533   -0.4797   52.4065 H       1  ZINC001570985666    0.0800
     49 H49         3.7982   -1.1687   50.8539 H       1  ZINC001570985666    0.0700
@<TRIPOS>BOND
     1     1     2    1
     2     1    29    1
     3     1    30    1
     4     1    31    1
     5     2     3    1
     6     2    21    1
     7     2     4    1
     8     4     5    1
     9     4     6    1
    10     4    19    1
    11     6     7   am
    12     6    32    1
    13     7     8    2
    14     7     9    1
    15     9    18    1
    16     9    10    2
    17    10    11    1
    18    10    33    1
    19    11    12    1
    20    11    34    1
    21    12    13    1
    22    12    18    2
    23    13    17    1
    24    13    14    2
    25    14    15    1
    26    15    16    1
    27    15    35    1
    28    16    17    2
    29    18    36    1
    30    19    20    1
    31    19    37    1
    32    19    38    1
    33    20    21    1
    34    20    39    1
    35    20    40    1
    36    21    22   am
    37    22    23    2
    38    22    24    1
    39    24    25    1
    40    24    41    1
    41    24    42    1
    42    25    28    1
    43    25    26    1
    44    25    43    1
    45    26    27    1
    46    26    44    1
    47    26    45    1
    48    27    28    1
    49    27    46    1
    50    27    47    1
    51    28    48    1
    52    28    49    1
@<TRIPOS>SUBSTRUCTURE
     1 ZINC001570985666        1 TEMP              0 ****  ****    0 ROOT


##########                                Name:    ZINC000301324012
##########                DOCK_Rotatable_Bonds:                   7
##########                         Heavy_Atoms:                  28
##########                    Molecular_Weight:               415.9
##########                DOCK_Rotatable_Bonds:                   7
##########                       Formal_Charge:          -0.0100002
##########                     HBond_Acceptors:                   8
##########                        HBond_Donors:                   2
##########                         Heavy_Atoms:                  28
##########                          Grid_Score:          -32.750950
##########                     Grid_vdw_energy:          -30.929022
##########                      Grid_es_energy:           -1.821928
##########           Internal_energy_repulsive:           13.667673

@<TRIPOS>MOLECULE
ZINC000301324012
 46 48 1 0 0
SMALL
USER_CHARGES


@<TRIPOS>ATOM
      1 C1          0.4319    2.7409   51.3293 C.3     1  ZINC000301324012   -0.1600
      2 C2         -0.5916    1.9949   50.4710 C.3     1  ZINC000301324012    0.2000
      3 H3         -0.3329    0.9366   50.4347 H       1  ZINC000301324012    0.1100
      4 N4         -1.9259    2.1515   51.0554 N.am    1  ZINC000301324012   -0.7100
      5 C5         -2.9596    1.4305   50.5780 C.2     1  ZINC000301324012    0.5500
      6 O6         -2.7846    0.6491   49.6635 O.2     1  ZINC000301324012   -0.5300
      7 C7         -4.3064    1.5900   51.1666 C.ar    1  ZINC000301324012   -0.0700
      8 C8         -4.5475    2.5968   52.1028 C.ar    1  ZINC000301324012   -0.1100
      9 C9         -5.8066    2.7405   52.6479 C.ar    1  ZINC000301324012   -0.0200
     10 C10        -6.8292    1.8891   52.2687 C.ar    1  ZINC000301324012   -0.6600
     11 S11        -8.4344    2.0793   52.9701 S.o2    1  ZINC000301324012    2.6900
     12 O12        -9.3064    1.2585   52.2049 O.2     1  ZINC000301324012   -0.9400
     13 O13        -8.2762    1.9463   54.3759 O.2     1  ZINC000301324012   -0.9400
     14 N14        -8.9060    3.6432   52.6984 N.am    1  ZINC000301324012   -1.0500
     15 C15        -9.0132    4.1235   51.3904 C.ar    1  ZINC000301324012    0.1600
     16 C16        -7.9435    4.7848   50.8020 C.ar    1  ZINC000301324012   -0.1600
     17 C17        -8.0527    5.2583   49.5087 C.ar    1  ZINC000301324012   -0.0800
     18 C18        -9.2255    5.0749   48.7999 C.ar    1  ZINC000301324012   -0.1200
     19 C19       -10.2935    4.4166   49.3822 C.ar    1  ZINC000301324012   -0.0900
     20 C20       -10.1892    3.9350   50.6731 C.ar    1  ZINC000301324012   -0.0600
     21 Cl21      -11.5299    3.1088   51.4035 Cl      1  ZINC000301324012   -0.0600
     22 C22        -6.5970    0.8893   51.3408 C.ar    1  ZINC000301324012   -0.0200
     23 C23        -5.3439    0.7382   50.7842 C.ar    1  ZINC000301324012   -0.0800
     24 C24        -0.5849    2.5618   49.0748 C.ar    1  ZINC000301324012    0.1200
     25 C25        -0.6356    1.7069   47.9904 C.ar    1  ZINC000301324012   -0.1600
     26 C26        -0.6293    2.2389   46.7097 C.ar    1  ZINC000301324012   -0.0700
     27 C27        -0.5721    3.6167   46.5679 C.ar    1  ZINC000301324012   -0.1700
     28 C28        -0.5236    4.4089   47.6995 C.ar    1  ZINC000301324012    0.1100
     29 N29        -0.5362    3.8684   48.9022 N.ar    1  ZINC000301324012   -0.4900
     30 H30         1.4246    2.6243   50.8947 H       1  ZINC000301324012    0.0700
     31 H31         0.1731    3.7991   51.3657 H       1  ZINC000301324012    0.0600
     32 H32         0.4270    2.3308   52.3393 H       1  ZINC000301324012    0.0700
     33 H33        -2.0653    2.7743   51.7859 H       1  ZINC000301324012    0.4100
     34 H34        -3.7499    3.2615   52.4002 H       1  ZINC000301324012    0.1400
     35 H35        -5.9945    3.5191   53.3724 H       1  ZINC000301324012    0.1500
     36 H36        -9.1077    4.2260   53.4471 H       1  ZINC000301324012    0.4300
     37 H37        -7.0272    4.9292   51.3550 H       1  ZINC000301324012    0.1700
     38 H38        -7.2208    5.7728   49.0508 H       1  ZINC000301324012    0.1400
     39 H39        -9.3080    5.4468   47.7894 H       1  ZINC000301324012    0.1400
     40 H40       -11.2082    4.2750   48.8258 H       1  ZINC000301324012    0.1400
     41 H41        -7.3997    0.2283   51.0488 H       1  ZINC000301324012    0.1500
     42 H42        -5.1640   -0.0424   50.0597 H       1  ZINC000301324012    0.1500
     43 H43        -0.6790    0.6380   48.1382 H       1  ZINC000301324012    0.1400
     44 H44        -0.6677    1.5950   45.8434 H       1  ZINC000301324012    0.1400
     45 H45        -0.5652    4.0654   45.5855 H       1  ZINC000301324012    0.1400
     46 H46        -0.4784    5.4831   47.5975 H       1  ZINC000301324012    0.1600
@<TRIPOS>BOND
     1     1     2    1
     2     1    30    1
     3     1    31    1
     4     1    32    1
     5     2     3    1
     6     2     4    1
     7     2    24    1
     8     4     5   am
     9     4    33    1
    10     5     6    2
    11     5     7    1
    12     7    23   ar
    13     7     8   ar
    14     8     9   ar
    15     8    34    1
    16     9    10   ar
    17     9    35    1
    18    10    11    1
    19    10    22   ar
    20    11    12    2
    21    11    13    2
    22    11    14   am
    23    14    15    1
    24    14    36    1
    25    15    20   ar
    26    15    16   ar
    27    16    17   ar
    28    16    37    1
    29    17    18   ar
    30    17    38    1
    31    18    19   ar
    32    18    39    1
    33    19    20   ar
    34    19    40    1
    35    20    21    1
    36    22    23   ar
    37    22    41    1
    38    23    42    1
    39    24    29   ar
    40    24    25   ar
    41    25    26   ar
    42    25    43    1
    43    26    27   ar
    44    26    44    1
    45    27    28   ar
    46    27    45    1
    47    28    29   ar
    48    28    46    1
@<TRIPOS>SUBSTRUCTURE
     1 ZINC000301324012        1 TEMP              0 ****  ****    0 ROOT


##########                                Name:    ZINC000859202493
##########                DOCK_Rotatable_Bonds:                  11
##########                         Heavy_Atoms:                  25
##########                    Molecular_Weight:             382.404
##########                DOCK_Rotatable_Bonds:                  11
##########                       Formal_Charge:          -0.0200009
##########                     HBond_Acceptors:                  10
##########                        HBond_Donors:                   3
##########                         Heavy_Atoms:                  25
##########                          Grid_Score:          -32.750496
##########                     Grid_vdw_energy:          -31.580647
##########                      Grid_es_energy:           -1.169850
##########           Internal_energy_repulsive:           16.008993

@<TRIPOS>MOLECULE
ZINC000859202493
 46 46 1 0 0
SMALL
USER_CHARGES


@<TRIPOS>ATOM
      1 C1          0.6649    5.6670   43.4066 C.3     1  ZINC000859202493   -0.1500
      2 C2          0.6499    4.2016   42.9674 C.3     1  ZINC000859202493   -0.1200
      3 C3          0.8848    3.3024   44.1828 C.3     1  ZINC000859202493   -0.1000
      4 H4          1.5494    3.8063   44.8845 H       1  ZINC000859202493    0.0700
      5 C5          1.5236    1.9883   43.7292 C.3     1  ZINC000859202493   -0.1600
      6 C6         -0.4522    3.0101   44.8669 C.3     1  ZINC000859202493   -0.1200
      7 C7         -0.2733    3.0753   46.3850 C.3     1  ZINC000859202493    0.1600
      8 H8         -1.1855    2.7327   46.8734 H       1  ZINC000859202493    0.1000
      9 C9          0.0177    4.5182   46.8027 C.3     1  ZINC000859202493    0.0500
     10 O10        -0.6211    4.7906   48.0517 O.3     1  ZINC000859202493   -0.5700
     11 N11         0.8454    2.2169   46.7823 N.am    1  ZINC000859202493   -1.1000
     12 S12         0.5724    0.8872   47.7309 S.o2    1  ZINC000859202493    2.6900
     13 O13        -0.4344    0.1273   47.0766 O.2     1  ZINC000859202493   -0.9500
     14 O14         1.8504    0.3618   48.0626 O.2     1  ZINC000859202493   -0.9500
     15 C15        -0.1371    1.4592   49.2390 C.ar    1  ZINC000859202493   -0.6600
     16 C16         0.6784    1.7729   50.3105 C.ar    1  ZINC000859202493   -0.0300
     17 C17         0.1253    2.2217   51.4960 C.ar    1  ZINC000859202493   -0.1100
     18 C18        -1.2439    2.3583   51.6128 C.ar    1  ZINC000859202493   -0.0600
     19 C19        -2.0658    2.0443   50.5381 C.ar    1  ZINC000859202493    0.1200
     20 N20        -3.4535    2.1820   50.6531 N.am    1  ZINC000859202493   -0.6500
     21 C21        -4.2511    1.1039   50.5194 C.2     1  ZINC000859202493    0.4800
     22 O22        -3.7660    0.0142   50.2995 O.2     1  ZINC000859202493   -0.4500
     23 C23        -5.7456    1.2522   50.6433 C.3     1  ZINC000859202493    0.4600
     24 F24        -6.3568    0.0123   50.4281 F       1  ZINC000859202493   -0.1500
     25 F25        -6.0639    1.7127   51.9254 F       1  ZINC000859202493   -0.1600
     26 F26        -6.2037    2.1694   49.6914 F       1  ZINC000859202493   -0.1600
     27 C27        -1.5071    1.5990   49.3475 C.ar    1  ZINC000859202493   -0.0300
     28 H28         0.4976    6.3076   42.5408 H       1  ZINC000859202493    0.0500
     29 H29        -0.1237    5.8346   44.1403 H       1  ZINC000859202493    0.0500
     30 H30         1.6314    5.9031   43.8518 H       1  ZINC000859202493    0.0600
     31 H31        -0.3168    3.9655   42.5223 H       1  ZINC000859202493    0.0600
     32 H32         1.4383    4.0340   42.2338 H       1  ZINC000859202493    0.0600
     33 H33         1.6909    1.3477   44.5951 H       1  ZINC000859202493    0.0500
     34 H34         0.8589    1.4844   43.0274 H       1  ZINC000859202493    0.0600
     35 H35         2.4760    2.1965   43.2418 H       1  ZINC000859202493    0.0600
     36 H36        -1.1891    3.7505   44.5558 H       1  ZINC000859202493    0.0800
     37 H37        -0.7952    2.0149   44.5839 H       1  ZINC000859202493    0.0800
     38 H38         1.0939    4.6561   46.9074 H       1  ZINC000859202493    0.0600
     39 H39        -0.3639    5.2003   46.0431 H       1  ZINC000859202493    0.0600
     40 H40        -1.5504    5.0452   47.9708 H       1  ZINC000859202493    0.3800
     41 H41         1.7459    2.4272   46.4896 H       1  ZINC000859202493    0.4200
     42 H42         1.7494    1.6670   50.2217 H       1  ZINC000859202493    0.1500
     43 H43         0.7649    2.4653   52.3315 H       1  ZINC000859202493    0.1400
     44 H44        -1.6751    2.7084   52.5390 H       1  ZINC000859202493    0.1400
     45 H45        -3.8415    3.0535   50.8291 H       1  ZINC000859202493    0.4200
     46 H46        -2.1435    1.3541   48.5100 H       1  ZINC000859202493    0.1500
@<TRIPOS>BOND
     1     1     2    1
     2     1    28    1
     3     1    29    1
     4     1    30    1
     5     2     3    1
     6     2    31    1
     7     2    32    1
     8     3     4    1
     9     3     5    1
    10     3     6    1
    11     5    33    1
    12     5    34    1
    13     5    35    1
    14     6     7    1
    15     6    36    1
    16     6    37    1
    17     7     8    1
    18     7     9    1
    19     7    11    1
    20     9    10    1
    21     9    38    1
    22     9    39    1
    23    10    40    1
    24    11    12   am
    25    11    41    1
    26    12    13    2
    27    12    14    2
    28    12    15    1
    29    15    27   ar
    30    15    16   ar
    31    16    17   ar
    32    16    42    1
    33    17    18   ar
    34    17    43    1
    35    18    19   ar
    36    18    44    1
    37    19    20    1
    38    19    27   ar
    39    20    21   am
    40    20    45    1
    41    21    22    2
    42    21    23    1
    43    23    24    1
    44    23    25    1
    45    23    26    1
    46    27    46    1
@<TRIPOS>SUBSTRUCTURE
     1 ZINC000859202493        1 TEMP              0 ****  ****    0 ROOT


##########                                Name:    ZINC000508571532
##########                DOCK_Rotatable_Bonds:                   9
##########                         Heavy_Atoms:                  30
##########                    Molecular_Weight:             422.407
##########                DOCK_Rotatable_Bonds:                   9
##########                       Formal_Charge:           0.0100001
##########                     HBond_Acceptors:                  10
##########                        HBond_Donors:                   0
##########                         Heavy_Atoms:                  30
##########                          Grid_Score:          -32.748695
##########                     Grid_vdw_energy:          -31.731140
##########                      Grid_es_energy:           -1.017557
##########           Internal_energy_repulsive:           20.337051

@<TRIPOS>MOLECULE
ZINC000508571532
 51 53 1 0 0
SMALL
USER_CHARGES


@<TRIPOS>ATOM
      1 C1          1.3341    0.9216   60.2570 C.3     1  ZINC000508571532    0.0300
      2 O2          1.9745    1.5339   59.1359 O.3     1  ZINC000508571532   -0.3200
      3 C3          1.1685    2.0900   58.1923 C.ar    1  ZINC000508571532    0.0900
      4 C4          1.7247    2.7101   57.0834 C.ar    1  ZINC000508571532   -0.1700
      5 C5          0.9061    3.2750   56.1248 C.ar    1  ZINC000508571532   -0.1100
      6 C6         -0.4721    3.2216   56.2710 C.ar    1  ZINC000508571532    0.0900
      7 O7         -1.2779    3.7781   55.3276 O.3     1  ZINC000508571532   -0.3100
      8 C8         -2.6718    3.8601   55.6315 C.3     1  ZINC000508571532    0.1500
      9 C9         -3.4038    4.4800   54.4692 C.2     1  ZINC000508571532    0.1700
     10 N10        -2.9289    5.3681   53.6425 N.2     1  ZINC000508571532   -0.2500
     11 N11        -3.8203    5.6795   52.7705 N.2     1  ZINC000508571532   -0.3000
     12 C12        -4.9205    5.0011   52.9958 C.2     1  ZINC000508571532    0.3500
     13 N13        -6.0955    5.0703   52.2642 N.3     1  ZINC000508571532   -0.4600
     14 C14        -6.4345    6.4631   51.9431 C.3     1  ZINC000508571532    0.0300
     15 C15        -6.0051    4.2560   51.0448 C.3     1  ZINC000508571532    0.1100
     16 C16        -6.7851    2.9804   51.2337 C.ar    1  ZINC000508571532   -0.0900
     17 C17        -7.8703    2.9538   52.0876 C.ar    1  ZINC000508571532   -0.0600
     18 C18        -8.5861    1.7835   52.2617 C.ar    1  ZINC000508571532   -0.1300
     19 C19        -8.2181    0.6377   51.5814 C.ar    1  ZINC000508571532   -0.0700
     20 C20        -7.1335    0.6592   50.7257 C.ar    1  ZINC000508571532   -0.1900
     21 C21        -6.4171    1.8332   50.5453 C.ar    1  ZINC000508571532    0.1100
     22 O22        -5.3499    1.8570   49.7042 O.3     1  ZINC000508571532   -0.3100
     23 C23        -4.1406    1.2576   50.1735 C.3     1  ZINC000508571532    0.6000
     24 F24        -4.2872   -0.1336   50.1948 F       1  ZINC000508571532   -0.1600
     25 F25        -3.0873    1.6024   49.3196 F       1  ZINC000508571532   -0.1300
     26 F26        -3.8631    1.7171   51.4653 F       1  ZINC000508571532   -0.1600
     27 N27        -4.6875    4.2102   54.0830 N.pl3   1  ZINC000508571532   -0.4500
     28 C28        -5.6220    3.2736   54.7121 C.3     1  ZINC000508571532    0.0800
     29 C29        -1.0283    2.6002   57.3792 C.ar    1  ZINC000508571532   -0.1700
     30 C30        -0.2098    2.0320   58.3359 C.ar    1  ZINC000508571532   -0.1100
     31 H31         2.0895    0.5186   60.9315 H       1  ZINC000508571532    0.1000
     32 H32         0.7355    1.6646   60.7841 H       1  ZINC000508571532    0.0600
     33 H33         0.6886    0.1144   59.9105 H       1  ZINC000508571532    0.0600
     34 H34         2.7979    2.7517   56.9696 H       1  ZINC000508571532    0.1400
     35 H35         1.3393    3.7585   55.2617 H       1  ZINC000508571532    0.1300
     36 H36        -3.0631    2.8595   55.8154 H       1  ZINC000508571532    0.0800
     37 H37        -2.8143    4.4749   56.5202 H       1  ZINC000508571532    0.1000
     38 H38        -5.7051    6.8613   51.2377 H       1  ZINC000508571532    0.0600
     39 H39        -7.4288    6.5019   51.4983 H       1  ZINC000508571532    0.0800
     40 H40        -6.4209    7.0599   52.8551 H       1  ZINC000508571532    0.0700
     41 H41        -6.4183    4.8135   50.2042 H       1  ZINC000508571532    0.0700
     42 H42        -4.9608    4.0170   50.8442 H       1  ZINC000508571532    0.0900
     43 H43        -8.1599    3.8477   52.6201 H       1  ZINC000508571532    0.1400
     44 H44        -9.4339    1.7645   52.9304 H       1  ZINC000508571532    0.1300
     45 H45        -8.7785   -0.2751   51.7193 H       1  ZINC000508571532    0.1400
     46 H46        -6.8462   -0.2363   50.1947 H       1  ZINC000508571532    0.1400
     47 H47        -5.4542    2.2720   54.3163 H       1  ZINC000508571532    0.0900
     48 H48        -5.4620    3.2697   55.7903 H       1  ZINC000508571532    0.0900
     49 H49        -6.6452    3.5822   54.4978 H       1  ZINC000508571532    0.1000
     50 H50        -2.1015    2.5584   57.4929 H       1  ZINC000508571532    0.1400
     51 H51        -0.6429    1.5482   59.1989 H       1  ZINC000508571532    0.1400
@<TRIPOS>BOND
     1     1     2    1
     2     1    31    1
     3     1    32    1
     4     1    33    1
     5     2     3    1
     6     3    30   ar
     7     3     4   ar
     8     4     5   ar
     9     4    34    1
    10     5     6   ar
    11     5    35    1
    12     6     7    1
    13     6    29   ar
    14     7     8    1
    15     8     9    1
    16     8    36    1
    17     8    37    1
    18     9    27    1
    19     9    10    2
    20    10    11    1
    21    11    12    2
    22    12    13    1
    23    12    27    1
    24    13    14    1
    25    13    15    1
    26    14    38    1
    27    14    39    1
    28    14    40    1
    29    15    16    1
    30    15    41    1
    31    15    42    1
    32    16    21   ar
    33    16    17   ar
    34    17    18   ar
    35    17    43    1
    36    18    19   ar
    37    18    44    1
    38    19    20   ar
    39    19    45    1
    40    20    21   ar
    41    20    46    1
    42    21    22    1
    43    22    23    1
    44    23    24    1
    45    23    25    1
    46    23    26    1
    47    27    28    1
    48    28    47    1
    49    28    48    1
    50    28    49    1
    51    29    30   ar
    52    29    50    1
    53    30    51    1
@<TRIPOS>SUBSTRUCTURE
     1 ZINC000508571532        1 TEMP              0 ****  ****    0 ROOT


##########                                Name:    ZINC000919225759
##########                DOCK_Rotatable_Bonds:                   4
##########                         Heavy_Atoms:                  27
##########                    Molecular_Weight:             375.295
##########                DOCK_Rotatable_Bonds:                   4
##########                       Formal_Charge:                0.04
##########                     HBond_Acceptors:                  11
##########                        HBond_Donors:                   0
##########                         Heavy_Atoms:                  27
##########                          Grid_Score:          -32.747295
##########                     Grid_vdw_energy:          -32.468643
##########                      Grid_es_energy:           -0.278653
##########           Internal_energy_repulsive:           10.823606

@<TRIPOS>MOLECULE
ZINC000919225759
 40 41 1 0 0
SMALL
USER_CHARGES


@<TRIPOS>ATOM
      1 C1         -1.5166    4.3810   51.0128 C.3     1  ZINC000919225759   -0.1500
      2 C2         -2.5420    3.2773   50.9704 C.ar    1  ZINC000919225759    0.0900
      3 C3         -2.1968    2.0205   50.4700 C.ar    1  ZINC000919225759   -0.1200
      4 C4         -0.8262    1.7677   49.9805 C.2     1  ZINC000919225759    0.5200
      5 O5         -0.6476    1.4032   48.8357 O.2     1  ZINC000919225759   -0.4700
      6 O6          0.2258    1.9414   50.8039 O.3     1  ZINC000919225759   -0.3400
      7 C7          1.5455    1.9321   50.1984 C.3     1  ZINC000919225759    0.1400
      8 H8          1.6386    1.0659   49.5433 H       1  ZINC000919225759    0.1100
      9 C9          1.7413    3.2117   49.3828 C.3     1  ZINC000919225759   -0.1700
     10 C10         2.5935    1.8597   51.2789 C.ar    1  ZINC000919225759   -0.1000
     11 C11         2.8451    2.9630   52.0725 C.ar    1  ZINC000919225759   -0.0400
     12 C12         3.8066    2.8966   53.0638 C.ar    1  ZINC000919225759   -0.1100
     13 C13         4.5158    1.7269   53.2614 C.ar    1  ZINC000919225759   -0.0500
     14 C14         4.2634    0.6230   52.4682 C.ar    1  ZINC000919225759   -0.0400
     15 N15         5.0233   -0.6295   52.6795 N.pl3   1  ZINC000919225759    0.0300
     16 O16         5.8708   -0.6877   53.5523 O.2     1  ZINC000919225759   -0.1500
     17 O17         4.8009   -1.6020   51.9807 O.2     1  ZINC000919225759   -0.1500
     18 C18         3.2992    0.6881   51.4800 C.ar    1  ZINC000919225759   -0.0400
     19 C19        -3.1530    1.0033   50.4348 C.ar    1  ZINC000919225759    0.0500
     20 C20        -4.4307    1.2462   50.8938 C.ar    1  ZINC000919225759   -0.0600
     21 N21        -5.4455    0.1692   50.8577 N.pl3   1  ZINC000919225759    0.0300
     22 O22        -5.1517   -0.9300   50.4229 O.2     1  ZINC000919225759   -0.1300
     23 O23        -6.5742    0.3821   51.2626 O.2     1  ZINC000919225759   -0.1300
     24 C24        -4.7661    2.4943   51.3885 C.ar    1  ZINC000919225759    0.0400
     25 C25        -3.8222    3.5049   51.4312 C.ar    1  ZINC000919225759   -0.0500
     26 N26        -4.1899    4.8367   51.9625 N.pl3   1  ZINC000919225759    0.0200
     27 O27        -5.2926    5.3005   51.7337 O.2     1  ZINC000919225759   -0.1300
     28 O28        -3.3897    5.4687   52.6286 O.2     1  ZINC000919225759   -0.1200
     29 H29        -0.9081    4.2771   51.9111 H       1  ZINC000919225759    0.1200
     30 H30        -0.8778    4.3175   50.1319 H       1  ZINC000919225759    0.1200
     31 H31        -2.0224    5.3464   51.0261 H       1  ZINC000919225759    0.0900
     32 H32         1.6483    4.0779   50.0379 H       1  ZINC000919225759    0.0700
     33 H33         2.7321    3.2048   48.9282 H       1  ZINC000919225759    0.0900
     34 H34         0.9834    3.2641   48.6013 H       1  ZINC000919225759    0.0700
     35 H35         2.2910    3.8770   51.9180 H       1  ZINC000919225759    0.1500
     36 H36         4.0037    3.7589   53.6835 H       1  ZINC000919225759    0.1500
     37 H37         5.2674    1.6753   54.0354 H       1  ZINC000919225759    0.1600
     38 H38         3.1020   -0.1743   50.8603 H       1  ZINC000919225759    0.1600
     39 H39        -2.8928    0.0289   50.0486 H       1  ZINC000919225759    0.1900
     40 H40        -5.7682    2.6792   51.7464 H       1  ZINC000919225759    0.1900
@<TRIPOS>BOND
     1     1     2    1
     2     1    29    1
     3     1    30    1
     4     1    31    1
     5     2    25   ar
     6     2     3   ar
     7     3     4    1
     8     3    19   ar
     9     4     5    2
    10     4     6    1
    11     6     7    1
    12     7     8    1
    13     7     9    1
    14     7    10    1
    15     9    32    1
    16     9    33    1
    17     9    34    1
    18    10    18   ar
    19    10    11   ar
    20    11    12   ar
    21    11    35    1
    22    12    13   ar
    23    12    36    1
    24    13    14   ar
    25    13    37    1
    26    14    15    1
    27    14    18   ar
    28    15    16    2
    29    15    17    2
    30    18    38    1
    31    19    20   ar
    32    19    39    1
    33    20    21    1
    34    20    24   ar
    35    21    22    2
    36    21    23    2
    37    24    25   ar
    38    24    40    1
    39    25    26    1
    40    26    27    2
    41    26    28    2
@<TRIPOS>SUBSTRUCTURE
     1 ZINC000919225759        1 TEMP              0 ****  ****    0 ROOT


##########                                Name:    ZINC000962855438
##########                DOCK_Rotatable_Bonds:                   7
##########                         Heavy_Atoms:                  27
##########                    Molecular_Weight:             370.448
##########                DOCK_Rotatable_Bonds:                   7
##########                       Formal_Charge:           0.0300005
##########                     HBond_Acceptors:                   6
##########                        HBond_Donors:                   2
##########                         Heavy_Atoms:                  27
##########                          Grid_Score:          -32.723816
##########                     Grid_vdw_energy:          -30.351522
##########                      Grid_es_energy:           -2.372292
##########           Internal_energy_repulsive:           10.271750

@<TRIPOS>MOLECULE
ZINC000962855438
 53 56 1 0 0
SMALL
USER_CHARGES


@<TRIPOS>ATOM
      1 C1         -1.0335    1.1178   49.3814 C.3     1  ZINC000962855438   -0.1100
      2 C2         -1.8443    1.9266   50.3610 C.2     1  ZINC000962855438   -0.1700
      3 C3         -3.3132    1.9188   50.2831 C.2     1  ZINC000962855438    0.5600
      4 O4         -3.8647    1.6924   49.2230 O.2     1  ZINC000962855438   -0.5400
      5 N5         -4.0479    2.1626   51.3863 N.am    1  ZINC000962855438   -0.7100
      6 C6         -5.5109    2.1565   51.3084 C.3     1  ZINC000962855438    0.1500
      7 H7         -5.8636    2.8770   50.5705 H       1  ZINC000962855438    0.1200
      8 C8         -6.1419    2.4291   52.6966 C.3     1  ZINC000962855438    0.1000
      9 N9         -7.4797    1.8130   52.6304 N.am    1  ZINC000962855438   -0.6100
     10 C10        -8.5435    2.1628   53.3804 C.2     1  ZINC000962855438    0.5800
     11 O11        -8.4434    3.0575   54.1976 O.2     1  ZINC000962855438   -0.5200
     12 C12        -9.8294    1.4599   53.2098 C.ar    1  ZINC000962855438   -0.1500
     13 C13       -10.5396    1.5828   52.0156 C.ar    1  ZINC000962855438   -0.0600
     14 C14       -11.7417    0.9281   51.8536 C.ar    1  ZINC000962855438   -0.1500
     15 C15       -12.2492    0.1481   52.8807 C.ar    1  ZINC000962855438   -0.0500
     16 C16       -11.5577    0.0221   54.0648 C.ar    1  ZINC000962855438   -0.1800
     17 C17       -10.3383    0.6600   54.2491 C.ar    1  ZINC000962855438    0.1600
     18 O18        -9.8179    0.3861   55.4738 O.3     1  ZINC000962855438   -0.2800
     19 C19       -10.8641   -0.0886   56.3383 C.3     1  ZINC000962855438    0.0700
     20 H20       -11.3294    0.7399   56.8725 H       1  ZINC000962855438    0.0900
     21 C21       -10.3248   -1.1299   57.3210 C.3     1  ZINC000962855438   -0.1500
     22 C22       -11.8598   -0.7351   55.3439 C.3     1  ZINC000962855438   -0.1100
     23 C23        -7.4613    0.7544   51.6103 C.3     1  ZINC000962855438    0.0700
     24 C24        -6.0452    0.7338   50.9961 C.3     1  ZINC000962855438    0.0900
     25 H25        -6.0940    0.5665   49.9201 H       1  ZINC000962855438    0.0900
     26 O26        -5.2360   -0.2625   51.6246 O.3     1  ZINC000962855438   -0.5600
     27 C27        -1.2318    2.6473   51.2960 C.2     1  ZINC000962855438   -0.0600
     28 C28        -1.6555    3.5573   52.4295 C.3     1  ZINC000962855438   -0.1000
     29 C29        -0.2955    4.2576   52.2828 C.3     1  ZINC000962855438   -0.1400
     30 C30         0.2000    2.9187   51.7062 C.3     1  ZINC000962855438   -0.1100
     31 H31        -0.8083    1.7270   48.5060 H       1  ZINC000962855438    0.0700
     32 H32        -0.1031    0.8020   49.8534 H       1  ZINC000962855438    0.0700
     33 H33        -1.6026    0.2397   49.0764 H       1  ZINC000962855438    0.0700
     34 H34        -3.6080    2.3421   52.2320 H       1  ZINC000962855438    0.4100
     35 H35        -5.5476    1.9620   53.4819 H       1  ZINC000962855438    0.0800
     36 H36        -6.2266    3.5017   52.8709 H       1  ZINC000962855438    0.0900
     37 H37       -10.1467    2.1930   51.2158 H       1  ZINC000962855438    0.1400
     38 H38       -12.2881    1.0233   50.9269 H       1  ZINC000962855438    0.1400
     39 H39       -13.1918   -0.3632   52.7519 H       1  ZINC000962855438    0.1300
     40 H40        -9.5586   -0.6748   57.9486 H       1  ZINC000962855438    0.0700
     41 H41       -11.1389   -1.4939   57.9477 H       1  ZINC000962855438    0.0800
     42 H42        -9.8927   -1.9631   56.7666 H       1  ZINC000962855438    0.0700
     43 H43       -12.8896   -0.5659   55.6583 H       1  ZINC000962855438    0.1000
     44 H44       -11.6591   -1.8003   55.2287 H       1  ZINC000962855438    0.1000
     45 H45        -7.6797   -0.2087   52.0716 H       1  ZINC000962855438    0.0800
     46 H46        -8.1972    0.9725   50.8364 H       1  ZINC000962855438    0.0800
     47 H47        -5.1603   -0.1604   52.5831 H       1  ZINC000962855438    0.3900
     48 H48        -2.5034    4.1961   52.1817 H       1  ZINC000962855438    0.0900
     49 H49        -1.7789    3.0399   53.3808 H       1  ZINC000962855438    0.1000
     50 H50        -0.2974    5.0772   51.5643 H       1  ZINC000962855438    0.0900
     51 H51         0.1676    4.5233   53.2331 H       1  ZINC000962855438    0.0800
     52 H52         0.5784    2.2317   52.4632 H       1  ZINC000962855438    0.1000
     53 H53         0.8787    3.0328   50.8609 H       1  ZINC000962855438    0.0800
@<TRIPOS>BOND
     1     1     2    1
     2     1    31    1
     3     1    32    1
     4     1    33    1
     5     2     3    1
     6     2    27    2
     7     3     4    2
     8     3     5   am
     9     5     6    1
    10     5    34    1
    11     6     7    1
    12     6    24    1
    13     6     8    1
    14     8     9    1
    15     8    35    1
    16     8    36    1
    17     9    10   am
    18     9    23    1
    19    10    11    2
    20    10    12    1
    21    12    17   ar
    22    12    13   ar
    23    13    14   ar
    24    13    37    1
    25    14    15   ar
    26    14    38    1
    27    15    16   ar
    28    15    39    1
    29    16    22    1
    30    16    17   ar
    31    17    18    1
    32    18    19    1
    33    19    20    1
    34    19    21    1
    35    19    22    1
    36    21    40    1
    37    21    41    1
    38    21    42    1
    39    22    43    1
    40    22    44    1
    41    23    24    1
    42    23    45    1
    43    23    46    1
    44    24    25    1
    45    24    26    1
    46    26    47    1
    47    27    30    1
    48    27    28    1
    49    28    29    1
    50    28    48    1
    51    28    49    1
    52    29    30    1
    53    29    50    1
    54    29    51    1
    55    30    52    1
    56    30    53    1
@<TRIPOS>SUBSTRUCTURE
     1 ZINC000962855438        1 TEMP              0 ****  ****    0 ROOT


##########                                Name:    ZINC000182044395
##########                DOCK_Rotatable_Bonds:                   8
##########                         Heavy_Atoms:                  28
##########                    Molecular_Weight:             398.889
##########                DOCK_Rotatable_Bonds:                   8
##########                       Formal_Charge:          -0.0399999
##########                     HBond_Acceptors:                   6
##########                        HBond_Donors:                   2
##########                         Heavy_Atoms:                  28
##########                          Grid_Score:          -32.720901
##########                     Grid_vdw_energy:          -31.556440
##########                      Grid_es_energy:           -1.164460
##########           Internal_energy_repulsive:           18.520487

@<TRIPOS>MOLECULE
ZINC000182044395
 51 53 1 0 0
SMALL
USER_CHARGES


@<TRIPOS>ATOM
      1 C1         -5.0594    3.6828   55.2575 C.3     1  ZINC000182044395   -0.1800
      2 C2         -5.2389    4.2207   53.8364 C.3     1  ZINC000182044395    0.0800
      3 N3         -5.4019    3.1001   52.9070 N.pl3   1  ZINC000182044395   -0.4800
      4 C4         -4.3428    2.7029   52.1896 C.2     1  ZINC000182044395    0.2500
      5 C5         -4.4125    1.6566   51.2932 C.2     1  ZINC000182044395   -0.3500
      6 C6         -3.2257    1.2504   50.5242 C.2     1  ZINC000182044395    0.5900
      7 O7         -3.1202    0.1051   50.1282 O.2     1  ZINC000182044395   -0.5600
      8 N8         -2.2554    2.1474   50.2586 N.am    1  ZINC000182044395   -0.7200
      9 C9         -1.0737    1.7429   49.4929 C.3     1  ZINC000182044395    0.1100
     10 H10        -0.9776    0.6575   49.5194 H       1  ZINC000182044395    0.0900
     11 C11        -1.2226    2.2065   48.0425 C.3     1  ZINC000182044395   -0.1600
     12 C12         0.1744    2.3806   50.1067 C.3     1  ZINC000182044395    0.1100
     13 H13         0.3433    3.3575   49.6536 H       1  ZINC000182044395    0.1100
     14 O14        -0.0129    2.5346   51.5149 O.3     1  ZINC000182044395   -0.5500
     15 C15         1.3856    1.4823   49.8484 C.3     1  ZINC000182044395   -0.1100
     16 C16         2.5037    1.8655   50.7832 C.ar    1  ZINC000182044395   -0.0800
     17 C17         3.1571    0.8916   51.5151 C.ar    1  ZINC000182044395   -0.1000
     18 C18         4.1825    1.2432   52.3730 C.ar    1  ZINC000182044395   -0.1200
     19 C19         4.5550    2.5685   52.4983 C.ar    1  ZINC000182044395   -0.1200
     20 C20         3.8984    3.5429   51.7701 C.ar    1  ZINC000182044395   -0.1200
     21 C21         2.8756    3.1909   50.9092 C.ar    1  ZINC000182044395   -0.1200
     22 C22        -5.6948    0.9576   51.1144 C.2     1  ZINC000182044395    0.4400
     23 O23        -5.8092    0.0310   50.3312 O.2     1  ZINC000182044395   -0.4900
     24 C24        -6.8345    1.4222   51.9271 C.ar    1  ZINC000182044395   -0.1800
     25 C25        -8.0862    0.8156   51.8277 C.ar    1  ZINC000182044395   -0.0200
     26 C26        -9.1310    1.2801   52.5979 C.ar    1  ZINC000182044395   -0.0700
     27 Cl27      -10.6924    0.5305   52.4793 Cl      1  ZINC000182044395   -0.0500
     28 C28        -8.9394    2.3446   53.4686 C.ar    1  ZINC000182044395   -0.0500
     29 C29        -7.7077    2.9522   53.5766 C.ar    1  ZINC000182044395   -0.1600
     30 C30        -6.6386    2.4997   52.8077 C.ar    1  ZINC000182044395    0.1900
     31 H31        -4.1749    3.0469   55.2962 H       1  ZINC000182044395    0.0700
     32 H32        -4.9380    4.5166   55.9490 H       1  ZINC000182044395    0.0800
     33 H33        -5.9372    3.1016   55.5395 H       1  ZINC000182044395    0.0700
     34 H34        -4.3609    4.8019   53.5544 H       1  ZINC000182044395    0.1000
     35 H35        -6.1234    4.8565   53.7977 H       1  ZINC000182044395    0.1100
     36 H36        -3.4026    3.2188   52.3174 H       1  ZINC000182044395    0.1800
     37 H37        -2.3396    3.0607   50.5743 H       1  ZINC000182044395    0.4100
     38 H38        -2.1117    1.7523   47.6053 H       1  ZINC000182044395    0.0600
     39 H39        -1.3186    3.2920   48.0160 H       1  ZINC000182044395    0.0600
     40 H40        -0.3433    1.9057   47.4728 H       1  ZINC000182044395    0.0600
     41 H41        -0.7601    3.1004   51.7528 H       1  ZINC000182044395    0.3700
     42 H42         1.7160    1.6054   48.8170 H       1  ZINC000182044395    0.0800
     43 H43         1.1094    0.4418   50.0196 H       1  ZINC000182044395    0.0800
     44 H44         2.8664   -0.1438   51.4169 H       1  ZINC000182044395    0.1200
     45 H45         4.6927    0.4824   52.9450 H       1  ZINC000182044395    0.1200
     46 H46         5.3561    2.8432   53.1685 H       1  ZINC000182044395    0.1200
     47 H47         4.1864    4.5789   51.8714 H       1  ZINC000182044395    0.1200
     48 H48         2.3649    3.9518   50.3377 H       1  ZINC000182044395    0.1200
     49 H49        -8.2363   -0.0129   51.1513 H       1  ZINC000182044395    0.1500
     50 H50        -9.7647    2.6999   54.0678 H       1  ZINC000182044395    0.1500
     51 H51        -7.5713    3.7792   54.2576 H       1  ZINC000182044395    0.1500
@<TRIPOS>BOND
     1     1     2    1
     2     1    31    1
     3     1    32    1
     4     1    33    1
     5     2     3    1
     6     2    34    1
     7     2    35    1
     8     3    30    1
     9     3     4    1
    10     4     5    2
    11     4    36    1
    12     5     6    1
    13     5    22    1
    14     6     7    2
    15     6     8   am
    16     8     9    1
    17     8    37    1
    18     9    10    1
    19     9    11    1
    20     9    12    1
    21    11    38    1
    22    11    39    1
    23    11    40    1
    24    12    13    1
    25    12    14    1
    26    12    15    1
    27    14    41    1
    28    15    16    1
    29    15    42    1
    30    15    43    1
    31    16    21   ar
    32    16    17   ar
    33    17    18   ar
    34    17    44    1
    35    18    19   ar
    36    18    45    1
    37    19    20   ar
    38    19    46    1
    39    20    21   ar
    40    20    47    1
    41    21    48    1
    42    22    23    2
    43    22    24    1
    44    24    30   ar
    45    24    25   ar
    46    25    26   ar
    47    25    49    1
    48    26    27    1
    49    26    28   ar
    50    28    29   ar
    51    28    50    1
    52    29    30   ar
    53    29    51    1
@<TRIPOS>SUBSTRUCTURE
     1 ZINC000182044395        1 TEMP              0 ****  ****    0 ROOT


##########                                Name:    ZINC000590699876
##########                DOCK_Rotatable_Bonds:                   9
##########                         Heavy_Atoms:                  30
##########                    Molecular_Weight:              421.54
##########                DOCK_Rotatable_Bonds:                   9
##########                       Formal_Charge:          -0.0300004
##########                     HBond_Acceptors:                   9
##########                        HBond_Donors:                   1
##########                         Heavy_Atoms:                  30
##########                          Grid_Score:          -32.718887
##########                     Grid_vdw_energy:          -32.140751
##########                      Grid_es_energy:           -0.578136
##########           Internal_energy_repulsive:          100.936073

@<TRIPOS>MOLECULE
ZINC000590699876
 65 67 1 0 0
SMALL
USER_CHARGES


@<TRIPOS>ATOM
      1 C1        -13.9606    0.4481   49.5750 C.3     1  ZINC000590699876   -0.1700
      2 C2        -13.1974    0.8064   50.8241 C.2     1  ZINC000590699876    0.5100
      3 O3        -12.7034   -0.0675   51.5045 O.2     1  ZINC000590699876   -0.5500
      4 N4        -13.0637    2.0980   51.1849 N.am    1  ZINC000590699876   -0.7200
      5 C5        -12.3232    2.4462   52.4002 C.3     1  ZINC000590699876    0.1100
      6 C6        -10.8768    2.6903   52.0546 C.2     1  ZINC000590699876    0.5300
      7 O7        -10.5573    2.9147   50.9064 O.2     1  ZINC000590699876   -0.5200
      8 N8         -9.9385    2.6591   53.0215 N.am    1  ZINC000590699876   -0.6000
      9 C9        -10.1863    2.3990   54.4514 C.3     1  ZINC000590699876    0.1000
     10 C10        -8.8391    1.8626   54.9962 C.3     1  ZINC000590699876   -0.1300
     11 C11        -7.8185    2.7193   54.2014 C.3     1  ZINC000590699876   -0.1300
     12 C12        -8.4973    2.8724   52.8240 C.3     1  ZINC000590699876    0.1200
     13 H13        -8.3260    3.8765   52.4360 H       1  ZINC000590699876    0.1000
     14 C14        -7.9446    1.8510   51.8638 C.2     1  ZINC000590699876    0.5100
     15 O15        -8.5382    0.8098   51.6780 O.2     1  ZINC000590699876   -0.5200
     16 N16        -6.7907    2.0944   51.2114 N.am    1  ZINC000590699876   -0.6100
     17 C17        -6.0509    3.3471   51.4278 C.3     1  ZINC000590699876    0.1000
     18 C18        -4.5925    3.0020   51.7476 C.3     1  ZINC000590699876    0.0400
     19 N19        -4.0538    2.1374   50.6892 N.3     1  ZINC000590699876   -0.5200
     20 C20        -2.6113    1.9239   50.8671 C.3     1  ZINC000590699876    0.0400
     21 C21        -1.9396    1.8825   49.5189 C.2     1  ZINC000590699876    0.5200
     22 O22        -2.5976    2.0175   48.5090 O.2     1  ZINC000590699876   -0.5100
     23 N23        -0.6074    1.6956   49.4351 N.am    1  ZINC000590699876   -0.6100
     24 C24         0.2032    1.5307   50.6494 C.3     1  ZINC000590699876    0.1100
     25 C25         1.3478    2.5483   50.6201 C.3     1  ZINC000590699876   -0.1400
     26 C26         2.1316    2.3911   49.3151 C.3     1  ZINC000590699876   -0.1200
     27 C27         1.2080    2.6686   48.1268 C.3     1  ZINC000590699876   -0.1300
     28 C28         0.0610    1.6468   48.1275 C.3     1  ZINC000590699876    0.1400
     29 H29         0.4612    0.6480   47.9529 H       1  ZINC000590699876    0.0700
     30 C30        -0.9400    1.9984   47.0251 C.3     1  ZINC000590699876   -0.1400
     31 C31        -4.7721    0.8575   50.6297 C.3     1  ZINC000590699876    0.0400
     32 C32        -6.2347    1.1119   50.2687 C.3     1  ZINC000590699876    0.1200
     33 H33       -13.9618   -0.6343   49.4479 H       1  ZINC000590699876    0.1000
     34 H34       -14.9869    0.8051   49.6613 H       1  ZINC000590699876    0.0900
     35 H35       -13.4852    0.9148   48.7123 H       1  ZINC000590699876    0.0900
     36 H36       -13.4577    2.7971   50.6401 H       1  ZINC000590699876    0.4100
     37 H37       -12.7492    3.3485   52.8392 H       1  ZINC000590699876    0.1000
     38 H38       -12.3927    1.6266   53.1153 H       1  ZINC000590699876    0.1000
     39 H39       -10.4620    3.3215   54.9624 H       1  ZINC000590699876    0.0800
     40 H40       -10.9690    1.6499   54.5705 H       1  ZINC000590699876    0.0800
     41 H41        -8.7509    2.0439   56.0674 H       1  ZINC000590699876    0.0900
     42 H42        -8.7201    0.8030   54.7697 H       1  ZINC000590699876    0.0800
     43 H43        -7.6774    3.6903   54.6761 H       1  ZINC000590699876    0.1000
     44 H44        -6.8679    2.1948   54.1040 H       1  ZINC000590699876    0.0900
     45 H45        -6.0934    3.9579   50.5261 H       1  ZINC000590699876    0.0800
     46 H46        -6.4900    3.8919   52.2635 H       1  ZINC000590699876    0.0900
     47 H47        -4.0054    3.9188   51.8024 H       1  ZINC000590699876    0.0900
     48 H48        -4.5433    2.4805   52.7035 H       1  ZINC000590699876    0.0400
     49 H49        -2.1932    2.7398   51.4566 H       1  ZINC000590699876    0.1000
     50 H50        -2.4451    0.9793   51.3851 H       1  ZINC000590699876    0.0600
     51 H51        -0.4170    1.7035   51.5289 H       1  ZINC000590699876    0.0800
     52 H52         0.6125    0.5210   50.6811 H       1  ZINC000590699876    0.0700
     53 H53         0.9394    3.5571   50.6799 H       1  ZINC000590699876    0.0700
     54 H54         2.0119    2.3734   51.4666 H       1  ZINC000590699876    0.0800
     55 H55         2.9616    3.0974   49.3026 H       1  ZINC000590699876    0.0700
     56 H56         2.5189    1.3747   49.2443 H       1  ZINC000590699876    0.0600
     57 H57         0.8008    3.6764   48.2100 H       1  ZINC000590699876    0.0700
     58 H58         1.7726    2.5794   47.1986 H       1  ZINC000590699876    0.0700
     59 H59        -0.4245    2.0376   46.0654 H       1  ZINC000590699876    0.0400
     60 H60        -1.7207    1.2387   46.9873 H       1  ZINC000590699876    0.0700
     61 H61        -1.3877    2.9693   47.2369 H       1  ZINC000590699876    0.0700
     62 H62        -4.3153    0.2188   49.8735 H       1  ZINC000590699876    0.1100
     63 H63        -4.7204    0.3658   51.6011 H       1  ZINC000590699876    0.0300
     64 H64        -6.7958    0.1799   50.3354 H       1  ZINC000590699876    0.0900
     65 H65        -6.2980    1.5089   49.2555 H       1  ZINC000590699876    0.0800
@<TRIPOS>BOND
     1     1     2    1
     2     1    33    1
     3     1    34    1
     4     1    35    1
     5     2     3    2
     6     2     4   am
     7     4     5    1
     8     4    36    1
     9     5     6    1
    10     5    37    1
    11     5    38    1
    12     6     7    2
    13     6     8   am
    14     8    12    1
    15     8     9    1
    16     9    10    1
    17     9    39    1
    18     9    40    1
    19    10    11    1
    20    10    41    1
    21    10    42    1
    22    11    12    1
    23    11    43    1
    24    11    44    1
    25    12    13    1
    26    12    14    1
    27    14    15    2
    28    14    16   am
    29    16    32    1
    30    16    17    1
    31    17    18    1
    32    17    45    1
    33    17    46    1
    34    18    19    1
    35    18    47    1
    36    18    48    1
    37    19    20    1
    38    19    31    1
    39    20    21    1
    40    20    49    1
    41    20    50    1
    42    21    22    2
    43    21    23   am
    44    23    28    1
    45    23    24    1
    46    24    25    1
    47    24    51    1
    48    24    52    1
    49    25    26    1
    50    25    53    1
    51    25    54    1
    52    26    27    1
    53    26    55    1
    54    26    56    1
    55    27    28    1
    56    27    57    1
    57    27    58    1
    58    28    29    1
    59    28    30    1
    60    30    59    1
    61    30    60    1
    62    30    61    1
    63    31    32    1
    64    31    62    1
    65    31    63    1
    66    32    64    1
    67    32    65    1
@<TRIPOS>SUBSTRUCTURE
     1 ZINC000590699876        1 TEMP              0 ****  ****    0 ROOT


##########                                Name:    ZINC000355549087
##########                DOCK_Rotatable_Bonds:                   9
##########                         Heavy_Atoms:                  23
##########                    Molecular_Weight:             336.415
##########                DOCK_Rotatable_Bonds:                   9
##########                       Formal_Charge:        -9.53674e-07
##########                     HBond_Acceptors:                   8
##########                        HBond_Donors:                   4
##########                         Heavy_Atoms:                  23
##########                          Grid_Score:          -32.687645
##########                     Grid_vdw_energy:          -31.803431
##########                      Grid_es_energy:           -0.884215
##########           Internal_energy_repulsive:           14.024776

@<TRIPOS>MOLECULE
ZINC000355549087
 43 44 1 0 0
SMALL
USER_CHARGES


@<TRIPOS>ATOM
      1 C1         -0.9800    2.1215   45.3355 C.3     1  <0>        -0.1500
      2 C2         -0.1277    0.9417   45.8072 C.3     1  <0>        -0.1200
      3 C3          1.1789    1.4644   46.4076 C.3     1  <0>        -0.1000
      4 H4          1.2175    2.5489   46.3053 H       1  <0>         0.0800
      5 C5          2.3650    0.8399   45.6701 C.3     1  <0>        -0.1500
      6 C6          1.2451    1.0893   47.8896 C.3     1  <0>         0.0900
      7 H7          1.1641    0.0074   47.9944 H       1  <0>         0.1000
      8 O8          2.4895    1.5293   48.4371 O.3     1  <0>        -0.3500
      9 C9          2.7099    1.1141   49.7865 C.3     1  <0>         0.0200
     10 C10         0.1096    1.7517   48.6265 C.2     1  <0>         0.5100
     11 O11        -0.0244    2.9561   48.5772 O.2     1  <0>        -0.4800
     12 N12        -0.7568    1.0059   49.3403 N.am    1  <0>        -0.6200
     13 C13        -1.8047    1.6166   50.0184 C.2     1  <0>         0.2400
     14 N14        -2.9898    1.1133   50.1547 N.2     1  <0>        -0.5000
     15 C15        -3.8729    1.8326   50.8347 C.2     1  <0>         0.1700
     16 C16        -5.2688    1.3833   51.0710 C.2     1  <0>        -0.1100
     17 C17        -5.9048    0.3554   50.4359 C.2     1  <0>         0.0600
     18 N18        -7.1639    0.2585   50.9284 N.pl3   1  <0>        -0.5400
     19 C19        -7.3418    1.2299   51.8872 C.2     1  <0>        -0.0600
     20 C20        -8.5657    1.4631   52.6621 C.2     1  <0>         0.5900
     21 N21        -9.4788    0.4802   52.7916 N.am    1  <0>        -0.8600
     22 O22        -8.7564    2.5439   53.1877 O.2     1  <0>        -0.5300
     23 C23        -6.1760    1.9355   51.9948 C.2     1  <0>        -0.0600
     24 C24        -3.3949    3.0039   51.2918 C.2     1  <0>        -0.3200
     25 S25        -1.7094    3.1352   50.7969 S.3     1  <0>         0.2500
     26 H26        -1.9109    1.7492   44.9077 H       1  <0>         0.0600
     27 H27        -1.2032    2.7701   46.1824 H       1  <0>         0.0600
     28 H28        -0.4331    2.6857   44.5799 H       1  <0>         0.0600
     29 H29        -0.6746    0.3775   46.5626 H       1  <0>         0.0600
     30 H30         0.0955    0.2930   44.9601 H       1  <0>         0.0700
     31 H31         2.3263   -0.2446   45.7724 H       1  <0>         0.0700
     32 H32         2.3178    1.1071   44.6143 H       1  <0>         0.0600
     33 H33         3.2958    1.2124   46.0978 H       1  <0>         0.0500
     34 H34         3.6265    1.5695   50.1616 H       1  <0>         0.0900
     35 H35         1.8689    1.4275   50.4051 H       1  <0>         0.0500
     36 H36         2.8025    0.0286   49.8222 H       1  <0>         0.0500
     37 H37        -0.6488    0.0427   49.3806 H       1  <0>         0.4200
     38 H38        -5.4766   -0.2745   49.6701 H       1  <0>         0.1800
     39 H39        -7.8304   -0.3890   50.6504 H       1  <0>         0.4200
     40 H40       -10.2885    0.6348   53.3029 H       1  <0>         0.4000
     41 H41        -9.3262   -0.3817   52.3736 H       1  <0>         0.4100
     42 H42        -5.9881    2.7656   52.6597 H       1  <0>         0.1500
     43 H43        -3.9467    3.7342   51.8648 H       1  <0>         0.1800
@<TRIPOS>BOND
     1     1     2    1
     2     1    26    1
     3     1    27    1
     4     1    28    1
     5     2     3    1
     6     2    29    1
     7     2    30    1
     8     3     4    1
     9     3     5    1
    10     3     6    1
    11     5    31    1
    12     5    32    1
    13     5    33    1
    14     6     7    1
    15     6     8    1
    16     6    10    1
    17     8     9    1
    18     9    34    1
    19     9    35    1
    20     9    36    1
    21    10    11    2
    22    10    12   am
    23    12    13    1
    24    12    37    1
    25    13    25    1
    26    13    14    2
    27    14    15    1
    28    15    16    1
    29    15    24    2
    30    16    23    1
    31    16    17    2
    32    17    18    1
    33    17    38    1
    34    18    19    1
    35    18    39    1
    36    19    20    1
    37    19    23    2
    38    20    21   am
    39    20    22    2
    40    21    40    1
    41    21    41    1
    42    23    42    1
    43    24    25    1
    44    24    43    1
@<TRIPOS>SUBSTRUCTURE
     1 <0>         1 TEMP              0 ****  ****    0 ROOT


##########                                Name:    ZINC000536173632
##########                DOCK_Rotatable_Bonds:                   7
##########                         Heavy_Atoms:                  29
##########                    Molecular_Weight:             407.389
##########                DOCK_Rotatable_Bonds:                   7
##########                       Formal_Charge:        -2.98023e-07
##########                     HBond_Acceptors:                   8
##########                        HBond_Donors:                   0
##########                         Heavy_Atoms:                  29
##########                          Grid_Score:          -32.652805
##########                     Grid_vdw_energy:          -30.852205
##########                      Grid_es_energy:           -1.800602
##########           Internal_energy_repulsive:           14.759654

@<TRIPOS>MOLECULE
ZINC000536173632
 49 51 1 0 0
SMALL
USER_CHARGES


@<TRIPOS>ATOM
      1 C1         -8.6459    1.4251   60.4928 C.3     1  ZINC000536173632    0.0400
      2 O2         -8.5247    2.4266   59.4484 O.3     1  ZINC000536173632   -0.3500
      3 C3         -7.7652    2.1093   58.3821 C.2     1  ZINC000536173632    0.5100
      4 O4         -7.2043    1.0329   58.3347 O.2     1  ZINC000536173632   -0.5000
      5 C5         -7.6144    3.0704   57.2704 C.ar    1  ZINC000536173632   -0.1300
      6 C6         -8.2958    4.2886   57.2994 C.ar    1  ZINC000536173632   -0.0600
      7 C7         -8.1505    5.1815   56.2577 C.ar    1  ZINC000536173632   -0.1300
      8 C8         -7.3324    4.8718   55.1860 C.ar    1  ZINC000536173632   -0.0700
      9 C9         -6.6542    3.6661   55.1508 C.ar    1  ZINC000536173632   -0.0800
     10 C10        -5.7652    3.3374   53.9791 C.3     1  ZINC000536173632   -0.1000
     11 C11        -6.4998    2.4242   53.0318 C.2     1  ZINC000536173632    0.5200
     12 O12        -7.5883    1.9839   53.3356 O.2     1  ZINC000536173632   -0.5200
     13 N13        -5.9471    2.0966   51.8470 N.am    1  ZINC000536173632   -0.6200
     14 C14        -6.6451    1.2067   50.9056 C.3     1  ZINC000536173632    0.0700
     15 C15        -5.6759    0.0983   50.4790 C.3     1  ZINC000536173632    0.0500
     16 O16        -4.4611    0.6895   50.0115 O.3     1  ZINC000536173632   -0.3700
     17 C17        -3.7570    1.4415   51.0028 C.3     1  ZINC000536173632    0.1200
     18 H18        -3.5366    0.8014   51.8570 H       1  ZINC000536173632    0.0800
     19 C19        -2.4692    1.9626   50.4186 C.ar    1  ZINC000536173632   -0.0900
     20 C20        -1.4667    2.4194   51.2531 C.ar    1  ZINC000536173632   -0.0600
     21 C21        -0.2853    2.8975   50.7172 C.ar    1  ZINC000536173632   -0.1200
     22 C22        -0.1066    2.9181   49.3469 C.ar    1  ZINC000536173632   -0.0700
     23 C23        -1.1090    2.4602   48.5120 C.ar    1  ZINC000536173632   -0.1800
     24 C24        -0.9144    2.4831   47.0178 C.3     1  ZINC000536173632    0.5100
     25 F25         0.2530    1.7858   46.6889 F       1  ZINC000536173632   -0.1800
     26 F26        -2.0108    1.8767   46.3953 F       1  ZINC000536173632   -0.1800
     27 F27        -0.8048    3.8079   46.5820 F       1  ZINC000536173632   -0.1800
     28 C28        -2.2883    1.9783   49.0479 C.ar    1  ZINC000536173632   -0.0500
     29 C29        -4.6305    2.6232   51.4539 C.3     1  ZINC000536173632    0.0900
     30 C30        -6.7855    2.7669   56.1884 C.ar    1  ZINC000536173632   -0.0400
     31 H31        -9.0876    0.5191   60.0779 H       1  ZINC000536173632    0.0600
     32 H32        -7.6584    1.1971   60.8940 H       1  ZINC000536173632    0.0600
     33 H33        -9.2828    1.8074   61.2905 H       1  ZINC000536173632    0.1000
     34 H34        -8.9353    4.5312   58.1352 H       1  ZINC000536173632    0.1400
     35 H35        -8.6770    6.1243   56.2790 H       1  ZINC000536173632    0.1400
     36 H36        -7.2228    5.5742   54.3729 H       1  ZINC000536173632    0.1300
     37 H37        -5.4934    4.2567   53.4601 H       1  ZINC000536173632    0.1100
     38 H38        -4.8627    2.8411   54.3358 H       1  ZINC000536173632    0.1100
     39 H39        -7.5149    0.7662   51.3932 H       1  ZINC000536173632    0.1000
     40 H40        -6.9622    1.7740   50.0307 H       1  ZINC000536173632    0.0800
     41 H41        -5.4625   -0.5468   51.3313 H       1  ZINC000536173632    0.0600
     42 H42        -6.1255   -0.4905   49.6794 H       1  ZINC000536173632    0.1100
     43 H43        -1.6064    2.4033   52.3239 H       1  ZINC000536173632    0.1400
     44 H44         0.4977    3.2551   51.3693 H       1  ZINC000536173632    0.1400
     45 H45         0.8160    3.2922   48.9281 H       1  ZINC000536173632    0.1400
     46 H46        -3.0714    1.6205   48.3958 H       1  ZINC000536173632    0.1400
     47 H47        -4.7424    3.3314   50.6329 H       1  ZINC000536173632    0.0800
     48 H48        -4.1656    3.1190   52.3061 H       1  ZINC000536173632    0.1100
     49 H49        -6.2553    1.8264   56.1599 H       1  ZINC000536173632    0.1400
@<TRIPOS>BOND
     1     1     2    1
     2     1    31    1
     3     1    32    1
     4     1    33    1
     5     2     3    1
     6     3     4    2
     7     3     5    1
     8     5    30   ar
     9     5     6   ar
    10     6     7   ar
    11     6    34    1
    12     7     8   ar
    13     7    35    1
    14     8     9   ar
    15     8    36    1
    16     9    10    1
    17     9    30   ar
    18    10    11    1
    19    10    37    1
    20    10    38    1
    21    11    12    2
    22    11    13   am
    23    13    29    1
    24    13    14    1
    25    14    15    1
    26    14    39    1
    27    14    40    1
    28    15    16    1
    29    15    41    1
    30    15    42    1
    31    16    17    1
    32    17    18    1
    33    17    19    1
    34    17    29    1
    35    19    28   ar
    36    19    20   ar
    37    20    21   ar
    38    20    43    1
    39    21    22   ar
    40    21    44    1
    41    22    23   ar
    42    22    45    1
    43    23    24    1
    44    23    28   ar
    45    24    25    1
    46    24    26    1
    47    24    27    1
    48    28    46    1
    49    29    47    1
    50    29    48    1
    51    30    49    1
@<TRIPOS>SUBSTRUCTURE
     1 ZINC000536173632        1 TEMP              0 ****  ****    0 ROOT


##########                                Name:    ZINC000655982608
##########                DOCK_Rotatable_Bonds:                   5
##########                         Heavy_Atoms:                  29
##########                    Molecular_Weight:             388.469
##########                DOCK_Rotatable_Bonds:                   5
##########                       Formal_Charge:          -0.0200006
##########                     HBond_Acceptors:                   6
##########                        HBond_Donors:                   0
##########                         Heavy_Atoms:                  29
##########                          Grid_Score:          -32.646614
##########                     Grid_vdw_energy:          -31.592781
##########                      Grid_es_energy:           -1.053833
##########           Internal_energy_repulsive:           49.311829

@<TRIPOS>MOLECULE
ZINC000655982608
 53 57 1 0 0
SMALL
USER_CHARGES


@<TRIPOS>ATOM
      1 C1         -5.1164    2.9563   51.4823 C.3     1  ZINC000655982608   -0.1900
      2 C2         -5.5859    1.9876   50.3950 C.3     1  ZINC000655982608    0.0800
      3 H3         -5.4582    2.4502   49.4164 H       1  ZINC000655982608    0.1000
      4 C4         -4.7574    0.7032   50.4641 C.3     1  ZINC000655982608   -0.0300
      5 C5         -3.3799    0.9637   49.9112 C.2     1  ZINC000655982608    0.2000
      6 N6         -3.0879    1.6548   48.8358 N.2     1  ZINC000655982608   -0.4800
      7 C7         -1.7472    1.6182   48.7349 C.2     1  ZINC000655982608    0.1700
      8 C8         -0.9157    2.2683   47.6592 C.3     1  ZINC000655982608   -0.0100
      9 H9         -1.4146    3.1536   47.2649 H       1  ZINC000655982608    0.1300
     10 C10         0.4958    2.6168   48.1858 C.3     1  ZINC000655982608   -0.1400
     11 C11         1.4080    2.3450   47.0099 C.2     1  ZINC000655982608    0.5200
     12 O12         2.5474    2.7477   46.9070 O.2     1  ZINC000655982608   -0.5000
     13 N13         0.7721    1.5917   46.0960 N.am    1  ZINC000655982608   -0.5600
     14 C14         1.3379    1.1722   44.8870 C.ar    1  ZINC000655982608    0.1600
     15 C15         0.5971    0.3978   44.0037 C.ar    1  ZINC000655982608   -0.1600
     16 C16         1.1585   -0.0147   42.8112 C.ar    1  ZINC000655982608   -0.0900
     17 C17         2.4568    0.3421   42.4965 C.ar    1  ZINC000655982608   -0.1400
     18 C18         3.1973    1.1127   43.3740 C.ar    1  ZINC000655982608   -0.0900
     19 C19         2.6394    1.5340   44.5652 C.ar    1  ZINC000655982608   -0.1600
     20 C20        -0.5925    1.2663   46.5288 C.3     1  ZINC000655982608    0.1100
     21 N21        -1.3006    0.9195   49.7353 N.2     1  ZINC000655982608   -0.3700
     22 O22        -2.2221    0.5391   50.4264 O.3     1  ZINC000655982608    0.0900
     23 N23        -7.0042    1.6673   50.6039 N.3     1  ZINC000655982608   -0.4700
     24 C24        -7.1883    0.8432   51.8183 C.3     1  ZINC000655982608    0.0300
     25 C25        -8.5903    1.2722   52.3087 C.3     1  ZINC000655982608   -0.0800
     26 C26        -8.7324    2.6703   51.7409 C.ar    1  ZINC000655982608   -0.1400
     27 C27        -9.6039    3.6955   52.0415 C.ar    1  ZINC000655982608   -0.0800
     28 C28        -9.5177    4.8995   51.3655 C.ar    1  ZINC000655982608   -0.1400
     29 C29        -8.5556    5.0733   50.3880 C.ar    1  ZINC000655982608   -0.0900
     30 C30        -7.6826    4.0500   50.0818 C.ar    1  ZINC000655982608   -0.1400
     31 C31        -7.7649    2.8331   50.7560 C.ar    1  ZINC000655982608    0.1000
     32 H32        -4.0988    3.2808   51.2651 H       1  ZINC000655982608    0.0700
     33 H33        -5.7768    3.8231   51.5064 H       1  ZINC000655982608    0.0700
     34 H34        -5.1392    2.4552   52.4500 H       1  ZINC000655982608    0.0700
     35 H35        -4.6771    0.3779   51.5013 H       1  ZINC000655982608    0.1200
     36 H36        -5.2438   -0.0749   49.8759 H       1  ZINC000655982608    0.1100
     37 H37         0.5470    3.6670   48.4736 H       1  ZINC000655982608    0.1200
     38 H38         0.7577    1.9763   49.0279 H       1  ZINC000655982608    0.1200
     39 H39        -0.4167    0.1182   44.2493 H       1  ZINC000655982608    0.1200
     40 H40         0.5829   -0.6170   42.1239 H       1  ZINC000655982608    0.1300
     41 H41         2.8936    0.0180   41.5634 H       1  ZINC000655982608    0.1200
     42 H42         4.2113    1.3892   43.1256 H       1  ZINC000655982608    0.1300
     43 H43         3.2183    2.1359   45.2502 H       1  ZINC000655982608    0.1500
     44 H44        -0.6347    0.2450   46.9073 H       1  ZINC000655982608    0.0900
     45 H45        -1.2906    1.3917   45.7011 H       1  ZINC000655982608    0.1000
     46 H46        -7.1732   -0.2183   51.5711 H       1  ZINC000655982608    0.1000
     47 H47        -6.4291    1.0785   52.5640 H       1  ZINC000655982608    0.0700
     48 H48        -9.3587    0.6122   51.9062 H       1  ZINC000655982608    0.0900
     49 H49        -8.6288    1.2921   53.3978 H       1  ZINC000655982608    0.0800
     50 H50       -10.3550    3.5583   52.8053 H       1  ZINC000655982608    0.1200
     51 H51       -10.2011    5.7021   51.6008 H       1  ZINC000655982608    0.1200
     52 H52        -8.4875    6.0139   49.8616 H       1  ZINC000655982608    0.1300
     53 H53        -6.9335    4.1920   49.3169 H       1  ZINC000655982608    0.1200
@<TRIPOS>BOND
     1     1     2    1
     2     1    32    1
     3     1    33    1
     4     1    34    1
     5     2     3    1
     6     2     4    1
     7     2    23    1
     8     4     5    1
     9     4    35    1
    10     4    36    1
    11     5    22    1
    12     5     6    2
    13     6     7    1
    14     7     8    1
    15     7    21    2
    16     8     9    1
    17     8    20    1
    18     8    10    1
    19    10    11    1
    20    10    37    1
    21    10    38    1
    22    11    12    2
    23    11    13   am
    24    13    14    1
    25    13    20    1
    26    14    19   ar
    27    14    15   ar
    28    15    16   ar
    29    15    39    1
    30    16    17   ar
    31    16    40    1
    32    17    18   ar
    33    17    41    1
    34    18    19   ar
    35    18    42    1
    36    19    43    1
    37    20    44    1
    38    20    45    1
    39    21    22    1
    40    23    31    1
    41    23    24    1
    42    24    25    1
    43    24    46    1
    44    24    47    1
    45    25    26    1
    46    25    48    1
    47    25    49    1
    48    26    31   ar
    49    26    27   ar
    50    27    28   ar
    51    27    50    1
    52    28    29   ar
    53    28    51    1
    54    29    30   ar
    55    29    52    1
    56    30    31   ar
    57    30    53    1
@<TRIPOS>SUBSTRUCTURE
     1 ZINC000655982608        1 TEMP              0 ****  ****    0 ROOT


##########                                Name:    ZINC000788423111
##########                DOCK_Rotatable_Bonds:                   7
##########                         Heavy_Atoms:                  23
##########                    Molecular_Weight:             399.243
##########                DOCK_Rotatable_Bonds:                   7
##########                       Formal_Charge:         1.04308e-07
##########                     HBond_Acceptors:                   8
##########                        HBond_Donors:                   1
##########                         Heavy_Atoms:                  23
##########                          Grid_Score:          -32.607620
##########                     Grid_vdw_energy:          -31.850040
##########                      Grid_es_energy:           -0.757581
##########           Internal_energy_repulsive:            5.786401

@<TRIPOS>MOLECULE
ZINC000788423111
 35 37 1 0 0
SMALL
USER_CHARGES


@<TRIPOS>ATOM
      1 O1         -1.5619    5.1783   55.0659 O.3     1  ZINC000788423111   -0.5400
      2 C2         -2.3082    3.9597   55.0804 C.3     1  ZINC000788423111    0.1000
      3 H3         -1.7583    3.1905   54.5382 H       1  ZINC000788423111    0.1300
      4 C4         -3.6650    4.1847   54.4101 C.3     1  ZINC000788423111    0.0300
      5 O5         -3.4721    4.4359   53.0166 O.3     1  ZINC000788423111   -0.2900
      6 C6         -3.2061    3.3621   52.2273 C.ar    1  ZINC000788423111    0.1700
      7 C7         -1.9237    3.1594   51.7398 C.ar    1  ZINC000788423111   -0.2400
      8 C8         -1.6551    2.0654   50.9361 C.ar    1  ZINC000788423111    0.1500
      9 F9         -0.4062    1.8669   50.4607 F       1  ZINC000788423111   -0.1300
     10 C10        -2.6660    1.1737   50.6196 C.ar    1  ZINC000788423111   -0.1600
     11 C11        -3.9456    1.3755   51.1051 C.ar    1  ZINC000788423111   -0.0300
     12 Br12       -5.3240    0.1559   50.6709 Br      1  ZINC000788423111   -0.0200
     13 C13        -4.2161    2.4641   51.9127 C.ar    1  ZINC000788423111   -0.1300
     14 C14        -2.5222    3.5098   56.5269 C.3     1  ZINC000788423111    0.1000
     15 N15        -1.2512    3.0436   57.0865 N.pl3   1  ZINC000788423111   -0.1300
     16 N16        -0.0834    3.4039   56.6824 N.2     1  ZINC000788423111   -0.0500
     17 N17         0.8103    2.8037   57.3928 N.2     1  ZINC000788423111   -0.2600
     18 C18         0.1621    2.0340   58.2807 C.2     1  ZINC000788423111    0.2400
     19 C19         0.7736    1.1606   59.3060 C.2     1  ZINC000788423111   -0.1300
     20 C20         2.0965    0.9794   59.4851 C.2     1  ZINC000788423111   -0.0800
     21 C21         2.4271    0.1144   60.5081 C.2     1  ZINC000788423111   -0.1400
     22 C22         1.3879   -0.4103   61.1636 C.2     1  ZINC000788423111   -0.2000
     23 S23        -0.1140    0.2036   60.4851 S.3     1  ZINC000788423111    0.1700
     24 N24        -1.1275    2.2130   58.0641 N.2     1  ZINC000788423111   -0.2900
     25 H25        -0.7073    5.1215   55.5148 H       1  ZINC000788423111    0.3800
     26 H26        -4.2846    3.2970   54.5369 H       1  ZINC000788423111    0.0900
     27 H27        -4.1592    5.0412   54.8686 H       1  ZINC000788423111    0.0800
     28 H28        -1.1354    3.8551   51.9869 H       1  ZINC000788423111    0.1500
     29 H29        -2.4553    0.3199   49.9926 H       1  ZINC000788423111    0.1500
     30 H30        -5.2152    2.6206   52.2916 H       1  ZINC000788423111    0.1500
     31 H31        -2.8934    4.3478   57.1169 H       1  ZINC000788423111    0.1300
     32 H32        -3.2495    2.6982   56.5512 H       1  ZINC000788423111    0.1300
     33 H33         2.8397    1.4720   58.8757 H       1  ZINC000788423111    0.1500
     34 H34         3.4505   -0.1213   60.7601 H       1  ZINC000788423111    0.1500
     35 H35         1.4595   -1.1034   61.9887 H       1  ZINC000788423111    0.1700
@<TRIPOS>BOND
     1     1     2    1
     2     1    25    1
     3     2     3    1
     4     2     4    1
     5     2    14    1
     6     4     5    1
     7     4    26    1
     8     4    27    1
     9     5     6    1
    10     6    13   ar
    11     6     7   ar
    12     7     8   ar
    13     7    28    1
    14     8     9    1
    15     8    10   ar
    16    10    11   ar
    17    10    29    1
    18    11    12    1
    19    11    13   ar
    20    13    30    1
    21    14    15    1
    22    14    31    1
    23    14    32    1
    24    15    24    1
    25    15    16    1
    26    16    17    2
    27    17    18    1
    28    18    19    1
    29    18    24    2
    30    19    23    1
    31    19    20    2
    32    20    21    1
    33    20    33    1
    34    21    22    2
    35    21    34    1
    36    22    23    1
    37    22    35    1
@<TRIPOS>SUBSTRUCTURE
     1 ZINC000788423111        1 TEMP              0 ****  ****    0 ROOT


##########                                Name:    ZINC000532153088
##########                DOCK_Rotatable_Bonds:                  11
##########                         Heavy_Atoms:                  29
##########                    Molecular_Weight:             402.484
##########                DOCK_Rotatable_Bonds:                  11
##########                       Formal_Charge:          -0.0200009
##########                     HBond_Acceptors:                   6
##########                        HBond_Donors:                   1
##########                         Heavy_Atoms:                  29
##########                          Grid_Score:          -32.576118
##########                     Grid_vdw_energy:          -33.378613
##########                      Grid_es_energy:            0.802494
##########           Internal_energy_repulsive:           17.361795

@<TRIPOS>MOLECULE
ZINC000532153088
 57 59 1 0 0
SMALL
USER_CHARGES


@<TRIPOS>ATOM
      1 C1         -3.2619    4.5538   55.4784 C.3     1  ZINC000532153088   -0.1800
      2 C2         -3.2822    4.8188   53.9717 C.3     1  ZINC000532153088    0.0800
      3 C3         -1.8555    5.0681   53.4783 C.3     1  ZINC000532153088   -0.1500
      4 O4         -3.8286    3.6845   53.2958 O.3     1  ZINC000532153088   -0.3800
      5 C5         -3.9543    3.8550   51.8825 C.3     1  ZINC000532153088    0.1000
      6 C6         -4.6311    2.6463   51.2891 C.ar    1  ZINC000532153088   -0.0700
      7 C7         -6.0104    2.5918   51.2183 C.ar    1  ZINC000532153088   -0.1000
      8 C8         -6.6312    1.4828   50.6739 C.ar    1  ZINC000532153088   -0.1100
      9 C9         -5.8727    0.4291   50.2000 C.ar    1  ZINC000532153088   -0.1200
     10 C10        -4.4930    0.4841   50.2699 C.ar    1  ZINC000532153088   -0.1000
     11 C11        -3.8722    1.5945   50.8103 C.ar    1  ZINC000532153088   -0.1100
     12 C12        -2.3683    1.6545   50.8865 C.3     1  ZINC000532153088    0.1600
     13 N13        -1.8446    2.3157   49.6886 N.am    1  ZINC000532153088   -0.7300
     14 C14        -0.7216    3.0570   49.7646 C.2     1  ZINC000532153088    0.5100
     15 O15        -0.1453    3.1778   50.8248 O.2     1  ZINC000532153088   -0.5000
     16 C16        -0.1819    3.7356   48.5320 C.3     1  ZINC000532153088    0.0300
     17 N17         0.1315    2.7243   47.5137 N.3     1  ZINC000532153088   -0.4800
     18 C18        -0.1791    3.2200   46.1662 C.3     1  ZINC000532153088    0.1000
     19 C19        -0.2699    2.0574   45.2118 C.ar    1  ZINC000532153088   -0.1300
     20 C20        -1.3149    1.1592   45.3149 C.ar    1  ZINC000532153088   -0.0600
     21 C21        -1.3999    0.0926   44.4398 C.ar    1  ZINC000532153088   -0.1700
     22 C22        -0.4377   -0.0770   43.4588 C.ar    1  ZINC000532153088    0.1300
     23 F23        -0.5212   -1.1193   42.6033 F       1  ZINC000532153088   -0.1300
     24 C24         0.6097    0.8223   43.3545 C.ar    1  ZINC000532153088   -0.2000
     25 C25         0.6908    1.8928   44.2278 C.ar    1  ZINC000532153088    0.1600
     26 F26         1.7123    2.7712   44.1273 F       1  ZINC000532153088   -0.1100
     27 C27         1.5347    2.2996   47.6079 C.3     1  ZINC000532153088    0.0200
     28 C28         1.9334    1.4402   48.8093 C.3     1  ZINC000532153088   -0.2200
     29 C29         1.8367    0.8118   47.4177 C.3     1  ZINC000532153088   -0.1700
     30 H30        -2.8451    5.4190   55.9939 H       1  ZINC000532153088    0.0700
     31 H31        -4.2782    4.3762   55.8298 H       1  ZINC000532153088    0.0600
     32 H32        -2.6477    3.6772   55.6848 H       1  ZINC000532153088    0.0700
     33 H33        -3.8963    5.6954   53.7652 H       1  ZINC000532153088    0.0600
     34 H34        -1.2414    4.1915   53.6847 H       1  ZINC000532153088    0.0600
     35 H35        -1.8701    5.2569   52.4049 H       1  ZINC000532153088    0.0600
     36 H36        -1.4387    5.9332   53.9939 H       1  ZINC000532153088    0.0700
     37 H37        -4.5504    4.7436   51.6753 H       1  ZINC000532153088    0.0600
     38 H38        -2.9644    3.9704   51.4410 H       1  ZINC000532153088    0.0600
     39 H39        -6.6030    3.4151   51.5887 H       1  ZINC000532153088    0.1300
     40 H40        -7.7090    1.4399   50.6193 H       1  ZINC000532153088    0.1200
     41 H41        -6.3577   -0.4373   49.7753 H       1  ZINC000532153088    0.1300
     42 H42        -3.9003   -0.3394   49.8998 H       1  ZINC000532153088    0.1300
     43 H43        -2.0715    2.2176   51.7714 H       1  ZINC000532153088    0.0800
     44 H44        -1.9669    0.6430   50.9479 H       1  ZINC000532153088    0.0800
     45 H45        -2.3062    2.2200   48.8409 H       1  ZINC000532153088    0.4000
     46 H46        -0.9292    4.4258   48.1405 H       1  ZINC000532153088    0.0700
     47 H47         0.7232    4.2867   48.7874 H       1  ZINC000532153088    0.1100
     48 H48        -1.1313    3.7502   46.1847 H       1  ZINC000532153088    0.0900
     49 H49         0.6083    3.8987   45.8383 H       1  ZINC000532153088    0.0500
     50 H50        -2.0657    1.2904   46.0801 H       1  ZINC000532153088    0.1400
     51 H51        -2.2168   -0.6091   44.5215 H       1  ZINC000532153088    0.1400
     52 H52         1.3607    0.6909   42.5895 H       1  ZINC000532153088    0.1500
     53 H53         2.2681    3.0138   47.2340 H       1  ZINC000532153088    0.1200
     54 H54         2.9296    1.5890   49.2261 H       1  ZINC000532153088    0.1000
     55 H55         1.1547    1.1899   49.5298 H       1  ZINC000532153088    0.1000
     56 H56         0.9943    0.1481   47.2226 H       1  ZINC000532153088    0.1000
     57 H57         2.7692    0.5473   46.9189 H       1  ZINC000532153088    0.1000
@<TRIPOS>BOND
     1     1     2    1
     2     1    30    1
     3     1    31    1
     4     1    32    1
     5     2     3    1
     6     2     4    1
     7     2    33    1
     8     3    34    1
     9     3    35    1
    10     3    36    1
    11     4     5    1
    12     5     6    1
    13     5    37    1
    14     5    38    1
    15     6    11   ar
    16     6     7   ar
    17     7     8   ar
    18     7    39    1
    19     8     9   ar
    20     8    40    1
    21     9    10   ar
    22     9    41    1
    23    10    11   ar
    24    10    42    1
    25    11    12    1
    26    12    13    1
    27    12    43    1
    28    12    44    1
    29    13    14   am
    30    13    45    1
    31    14    15    2
    32    14    16    1
    33    16    17    1
    34    16    46    1
    35    16    47    1
    36    17    18    1
    37    17    27    1
    38    18    19    1
    39    18    48    1
    40    18    49    1
    41    19    25   ar
    42    19    20   ar
    43    20    21   ar
    44    20    50    1
    45    21    22   ar
    46    21    51    1
    47    22    23    1
    48    22    24   ar
    49    24    25   ar
    50    24    52    1
    51    25    26    1
    52    27    29    1
    53    27    28    1
    54    27    53    1
    55    28    29    1
    56    28    54    1
    57    28    55    1
    58    29    56    1
    59    29    57    1
@<TRIPOS>SUBSTRUCTURE
     1 ZINC000532153088        1 TEMP              0 ****  ****    0 ROOT


##########                                Name:    ZINC001707162141
##########                DOCK_Rotatable_Bonds:                   9
##########                         Heavy_Atoms:                  25
##########                    Molecular_Weight:               344.5
##########                DOCK_Rotatable_Bonds:                   9
##########                       Formal_Charge:          -0.0299999
##########                     HBond_Acceptors:                   5
##########                        HBond_Donors:                   1
##########                         Heavy_Atoms:                  25
##########                          Grid_Score:          -32.535374
##########                     Grid_vdw_energy:          -31.944786
##########                      Grid_es_energy:           -0.590587
##########           Internal_energy_repulsive:           80.530449

@<TRIPOS>MOLECULE
ZINC001707162141
 57 59 1 0 0
SMALL
USER_CHARGES


@<TRIPOS>ATOM
      1 C1          2.1718    0.6885   48.0619 C.3     1  ZINC001707162141   -0.1800
      2 C2          0.6741    0.9005   48.2919 C.3     1  ZINC001707162141    0.1700
      3 H3          0.1959   -0.0606   48.4810 H       1  ZINC001707162141    0.1000
      4 N4          0.4764    1.7822   49.4501 N.3     1  ZINC001707162141   -0.6400
      5 C5         -0.9333    1.8004   49.8633 C.3     1  ZINC001707162141    0.0700
      6 C6         -1.2168    3.0799   50.6528 C.3     1  ZINC001707162141    0.1500
      7 H7         -1.1082    3.9447   49.9983 H       1  ZINC001707162141    0.0700
      8 C8         -0.2333    3.1904   51.8221 C.3     1  ZINC001707162141   -0.1200
      9 C9         -0.6090    4.3955   52.6873 C.3     1  ZINC001707162141   -0.0900
     10 H10        -0.5867    5.2999   52.0793 H       1  ZINC001707162141    0.0700
     11 C11         0.3918    4.5294   53.8369 C.3     1  ZINC001707162141   -0.1500
     12 C12        -2.0159    4.1983   53.2565 C.3     1  ZINC001707162141   -0.1300
     13 C13        -3.0195    4.0993   52.1034 C.3     1  ZINC001707162141    0.1100
     14 N14        -2.5845    3.0358   51.1877 N.am    1  ZINC001707162141   -0.6100
     15 C15        -3.4239    2.0384   50.8454 C.2     1  ZINC001707162141    0.5100
     16 O16        -3.0528    1.1664   50.0886 O.2     1  ZINC001707162141   -0.4800
     17 C17        -4.8236    2.0068   51.4030 C.3     1  ZINC001707162141   -0.1400
     18 C18        -5.6369    0.9323   50.6786 C.3     1  ZINC001707162141   -0.0900
     19 C19        -7.0464    0.8736   51.2711 C.3     1  ZINC001707162141   -0.0900
     20 C20        -7.7154    2.2425   51.1322 C.3     1  ZINC001707162141   -0.1500
     21 C21        -7.9769    3.0345   52.4150 C.3     1  ZINC001707162141   -0.1800
     22 C22        -9.1427    2.3884   51.6637 C.3     1  ZINC001707162141   -0.1800
     23 C23         0.0627    1.5336   47.0685 C.ar    1  ZINC001707162141    0.3500
     24 N24        -0.5322    0.7653   46.1782 N.ar    1  ZINC001707162141   -0.5000
     25 C25        -1.0851    1.2863   45.0946 C.ar    1  ZINC001707162141    0.1500
     26 C26        -1.0219    2.6568   44.8980 C.ar    1  ZINC001707162141   -0.2400
     27 C27        -0.3829    3.4311   45.8536 C.ar    1  ZINC001707162141    0.1500
     28 N28         0.1421    2.8401   46.9148 N.ar    1  ZINC001707162141   -0.5200
     29 H29         2.6139    0.2307   48.9468 H       1  ZINC001707162141    0.0600
     30 H30         2.3184    0.0345   47.2025 H       1  ZINC001707162141    0.0600
     31 H31         2.6499    1.6497   47.8728 H       1  ZINC001707162141    0.0600
     32 H32         1.0743    1.5119   50.2166 H       1  ZINC001707162141    0.3300
     33 H33        -1.5712    1.7696   48.9800 H       1  ZINC001707162141    0.1000
     34 H34        -1.1392    0.9332   50.4907 H       1  ZINC001707162141    0.0200
     35 H35        -0.2794    2.2824   52.4233 H       1  ZINC001707162141    0.0700
     36 H36         0.7777    3.3206   51.4361 H       1  ZINC001707162141    0.0700
     37 H37         0.3693    3.6254   54.4454 H       1  ZINC001707162141    0.0500
     38 H38         1.3939    4.6700   53.4317 H       1  ZINC001707162141    0.0600
     39 H39         0.1250    5.3885   54.4525 H       1  ZINC001707162141    0.0600
     40 H40        -2.2736    5.0459   53.8914 H       1  ZINC001707162141    0.0700
     41 H41        -2.0452    3.2808   53.8442 H       1  ZINC001707162141    0.0700
     42 H42        -3.0572    5.0486   51.5692 H       1  ZINC001707162141    0.0600
     43 H43        -4.0071    3.8602   52.4980 H       1  ZINC001707162141    0.0800
     44 H44        -4.7854    1.7773   52.4678 H       1  ZINC001707162141    0.0800
     45 H45        -5.2947    2.9789   51.2574 H       1  ZINC001707162141    0.0800
     46 H46        -5.6986    1.1765   49.6180 H       1  ZINC001707162141    0.0700
     47 H47        -5.1508   -0.0356   50.8009 H       1  ZINC001707162141    0.0700
     48 H48        -7.6339    0.1263   50.7377 H       1  ZINC001707162141    0.0600
     49 H49        -6.9863    0.6038   52.3255 H       1  ZINC001707162141    0.0600
     50 H50        -7.4516    2.8061   50.2373 H       1  ZINC001707162141    0.1000
     51 H51        -7.6722    2.5802   53.3577 H       1  ZINC001707162141    0.0900
     52 H52        -7.8849    4.1194   52.3641 H       1  ZINC001707162141    0.0900
     53 H53        -9.8177    3.0482   51.1187 H       1  ZINC001707162141    0.0900
     54 H54        -9.6050    1.5092   52.1123 H       1  ZINC001707162141    0.0900
     55 H55        -1.5747    0.6516   44.3709 H       1  ZINC001707162141    0.1600
     56 H56        -1.4603    3.1105   44.0214 H       1  ZINC001707162141    0.1400
     57 H57        -0.3141    4.5022   45.7334 H       1  ZINC001707162141    0.1600
@<TRIPOS>BOND
     1     1     2    1
     2     1    29    1
     3     1    30    1
     4     1    31    1
     5     2     3    1
     6     2     4    1
     7     2    23    1
     8     4     5    1
     9     4    32    1
    10     5     6    1
    11     5    33    1
    12     5    34    1
    13     6     7    1
    14     6    14    1
    15     6     8    1
    16     8     9    1
    17     8    35    1
    18     8    36    1
    19     9    10    1
    20     9    11    1
    21     9    12    1
    22    11    37    1
    23    11    38    1
    24    11    39    1
    25    12    13    1
    26    12    40    1
    27    12    41    1
    28    13    14    1
    29    13    42    1
    30    13    43    1
    31    14    15   am
    32    15    16    2
    33    15    17    1
    34    17    18    1
    35    17    44    1
    36    17    45    1
    37    18    19    1
    38    18    46    1
    39    18    47    1
    40    19    20    1
    41    19    48    1
    42    19    49    1
    43    20    22    1
    44    20    21    1
    45    20    50    1
    46    21    22    1
    47    21    51    1
    48    21    52    1
    49    22    53    1
    50    22    54    1
    51    23    28   ar
    52    23    24   ar
    53    24    25   ar
    54    25    26   ar
    55    25    55    1
    56    26    27   ar
    57    26    56    1
    58    27    28   ar
    59    27    57    1
@<TRIPOS>SUBSTRUCTURE
     1 ZINC001707162141        1 TEMP              0 ****  ****    0 ROOT


##########                                Name:    ZINC000433961694
##########                DOCK_Rotatable_Bonds:                   7
##########                         Heavy_Atoms:                  29
##########                    Molecular_Weight:             413.472
##########                DOCK_Rotatable_Bonds:                   7
##########                       Formal_Charge:          0.00999992
##########                     HBond_Acceptors:                   8
##########                        HBond_Donors:                   0
##########                         Heavy_Atoms:                  29
##########                          Grid_Score:          -32.528576
##########                     Grid_vdw_energy:          -32.455872
##########                      Grid_es_energy:           -0.072704
##########           Internal_energy_repulsive:           28.730804

@<TRIPOS>MOLECULE
ZINC000433961694
 49 52 1 0 0
SMALL
USER_CHARGES


@<TRIPOS>ATOM
      1 C1         -5.5883   -0.1551   50.7514 C.3     1  ZINC000433961694   -0.1000
      2 C2         -4.7195    1.0553   50.9774 C.2     1  ZINC000433961694    0.1600
      3 C3         -5.1992    2.2257   51.4677 C.2     1  ZINC000433961694   -0.3000
      4 C4         -6.5897    2.4998   51.8455 C.2     1  ZINC000433961694    0.6200
      5 O5         -7.0200    2.1029   52.9123 O.2     1  ZINC000433961694   -0.5100
      6 N6         -7.3909    3.1913   51.0110 N.am    1  ZINC000433961694   -0.6100
      7 C7         -8.8020    3.5359   51.2634 C.3     1  ZINC000433961694    0.1100
      8 C8         -9.0677    4.7861   50.3881 C.3     1  ZINC000433961694   -0.1300
      9 C9         -8.2303    4.4638   49.1223 C.3     1  ZINC000433961694    0.0800
     10 H10        -8.7870    3.8145   48.4466 H       1  ZINC000433961694    0.1000
     11 O11        -7.8375    5.6656   48.4564 O.3     1  ZINC000433961694   -0.2900
     12 C12        -8.8260    6.4193   47.9111 C.ar    1  ZINC000433961694    0.1700
     13 C13        -8.5329    7.6036   47.2395 C.ar    1  ZINC000433961694   -0.2600
     14 C14        -9.5659    8.3415   46.6990 C.ar    1  ZINC000433961694    0.1400
     15 N15       -10.8169    7.9374   46.8123 N.ar    1  ZINC000433961694   -0.5100
     16 C16       -11.1344    6.8213   47.4409 C.ar    1  ZINC000433961694    0.1400
     17 C17       -10.1583    6.0248   48.0037 C.ar    1  ZINC000433961694   -0.2000
     18 C18        -7.0007    3.7326   49.7008 C.3     1  ZINC000433961694    0.0600
     19 S19        -3.8523    3.3573   51.5699 S.3     1  ZINC000433961694    0.2100
     20 C20        -2.7925    2.1660   50.9534 C.2     1  ZINC000433961694    0.0400
     21 C21        -1.3174    2.3657   50.7181 C.3     1  ZINC000433961694    0.1400
     22 O22        -0.6950    1.0991   50.4938 O.3     1  ZINC000433961694   -0.3000
     23 C23         0.5896    1.1128   50.0489 C.ar    1  ZINC000433961694    0.1200
     24 C24         1.6022    1.5931   50.8660 C.ar    1  ZINC000433961694   -0.1800
     25 C25         2.9071    1.6065   50.4126 C.ar    1  ZINC000433961694   -0.1100
     26 C26         3.2042    1.1411   49.1429 C.ar    1  ZINC000433961694    0.0600
     27 F27         4.4807    1.1551   48.7005 F       1  ZINC000433961694   -0.1400
     28 C28         2.1944    0.6609   48.3263 C.ar    1  ZINC000433961694   -0.1100
     29 C29         0.8895    0.6411   48.7794 C.ar    1  ZINC000433961694   -0.1200
     30 N30        -3.4351    1.0665   50.7225 N.2     1  ZINC000433961694   -0.4500
     31 H31        -5.6045   -0.7645   51.6551 H       1  ZINC000433961694    0.0800
     32 H32        -6.6020    0.1650   50.5109 H       1  ZINC000433961694    0.1000
     33 H33        -5.1867   -0.7415   49.9250 H       1  ZINC000433961694    0.0800
     34 H34        -9.4528    2.7156   50.9608 H       1  ZINC000433961694    0.0800
     35 H35        -8.9523    3.7715   52.3170 H       1  ZINC000433961694    0.1000
     36 H36       -10.1264    4.8744   50.1443 H       1  ZINC000433961694    0.1000
     37 H37        -8.7044    5.6899   50.8773 H       1  ZINC000433961694    0.1000
     38 H38        -7.5111    7.9401   47.1436 H       1  ZINC000433961694    0.1400
     39 H39        -9.3478    9.2614   46.1769 H       1  ZINC000433961694    0.1600
     40 H40       -12.1706    6.5255   47.5119 H       1  ZINC000433961694    0.1700
     41 H41       -10.4248    5.1125   48.5166 H       1  ZINC000433961694    0.1400
     42 H42        -6.1729    4.4325   49.8151 H       1  ZINC000433961694    0.0900
     43 H43        -6.7100    2.9161   49.0398 H       1  ZINC000433961694    0.0800
     44 H44        -1.1716    3.0019   49.8450 H       1  ZINC000433961694    0.0900
     45 H45        -0.8710    2.8403   51.5919 H       1  ZINC000433961694    0.1000
     46 H46         1.3706    1.9568   51.8562 H       1  ZINC000433961694    0.1400
     47 H47         3.6957    1.9804   51.0486 H       1  ZINC000433961694    0.1400
     48 H48         2.4276    0.2980   47.3362 H       1  ZINC000433961694    0.1500
     49 H49         0.1020    0.2665   48.1423 H       1  ZINC000433961694    0.1400
@<TRIPOS>BOND
     1     1     2    1
     2     1    31    1
     3     1    32    1
     4     1    33    1
     5     2    30    1
     6     2     3    2
     7     3     4    1
     8     3    19    1
     9     4     5    2
    10     4     6   am
    11     6    18    1
    12     6     7    1
    13     7     8    1
    14     7    34    1
    15     7    35    1
    16     8     9    1
    17     8    36    1
    18     8    37    1
    19     9    10    1
    20     9    11    1
    21     9    18    1
    22    11    12    1
    23    12    17   ar
    24    12    13   ar
    25    13    14   ar
    26    13    38    1
    27    14    15   ar
    28    14    39    1
    29    15    16   ar
    30    16    17   ar
    31    16    40    1
    32    17    41    1
    33    18    42    1
    34    18    43    1
    35    19    20    1
    36    20    21    1
    37    20    30    2
    38    21    22    1
    39    21    44    1
    40    21    45    1
    41    22    23    1
    42    23    29   ar
    43    23    24   ar
    44    24    25   ar
    45    24    46    1
    46    25    26   ar
    47    25    47    1
    48    26    27    1
    49    26    28   ar
    50    28    29   ar
    51    28    48    1
    52    29    49    1
@<TRIPOS>SUBSTRUCTURE
     1 ZINC000433961694        1 TEMP              0 ****  ****    0 ROOT


##########                                Name:    ZINC000484424341
##########                DOCK_Rotatable_Bonds:                   7
##########                         Heavy_Atoms:                  26
##########                    Molecular_Weight:             359.425
##########                DOCK_Rotatable_Bonds:                   7
##########                       Formal_Charge:          -0.0100009
##########                     HBond_Acceptors:                   7
##########                        HBond_Donors:                   1
##########                         Heavy_Atoms:                  26
##########                          Grid_Score:          -32.524437
##########                     Grid_vdw_energy:          -31.841543
##########                      Grid_es_energy:           -0.682893
##########           Internal_energy_repulsive:           19.044466

@<TRIPOS>MOLECULE
ZINC000484424341
 51 53 1 0 0
SMALL
USER_CHARGES


@<TRIPOS>ATOM
      1 C1         -7.0580    3.6610   49.6566 C.3     1  ZINC000484424341    0.0300
      2 O2         -7.3219    2.5105   50.4619 O.3     1  ZINC000484424341   -0.3800
      3 C3         -6.3376    1.4812   50.3454 C.3     1  ZINC000484424341    0.1300
      4 H4         -6.2730    1.1562   49.3071 H       1  ZINC000484424341    0.0700
      5 C5         -6.7330    0.2952   51.2274 C.3     1  ZINC000484424341   -0.1700
      6 C6         -4.9995    2.0133   50.7894 C.ar    1  ZINC000484424341   -0.0700
      7 C7         -4.9297    2.9384   51.8147 C.ar    1  ZINC000484424341   -0.1000
      8 C8         -3.7036    3.4293   52.2253 C.ar    1  ZINC000484424341   -0.1000
      9 C9         -2.5445    2.9968   51.6122 C.ar    1  ZINC000484424341   -0.1100
     10 C10        -2.6108    2.0672   50.5816 C.ar    1  ZINC000484424341    0.1400
     11 N11        -1.4399    1.6270   49.9593 N.am    1  ZINC000484424341   -0.6400
     12 C12        -1.2198    1.9101   48.6601 C.2     1  ZINC000484424341    0.5100
     13 O13        -2.0388    2.5475   48.0307 O.2     1  ZINC000484424341   -0.4900
     14 C14         0.0319    1.4396   47.9949 C.2     1  ZINC000484424341    0.5200
     15 O15         0.8831    0.8643   48.6411 O.2     1  ZINC000484424341   -0.5200
     16 N16         0.2161    1.6536   46.6771 N.am    1  ZINC000484424341   -0.5800
     17 C17        -0.7287    2.3339   45.7792 C.3     1  ZINC000484424341    0.1100
     18 C18        -0.0839    2.3697   44.3775 C.3     1  ZINC000484424341   -0.1500
     19 C19         1.4283    2.2111   44.6865 C.3     1  ZINC000484424341    0.1500
     20 H20         1.8735    3.1676   44.9606 H       1  ZINC000484424341    0.1100
     21 N21         2.1359    1.6114   43.5526 N.am    1  ZINC000484424341   -0.6100
     22 C22         2.3468    0.1698   43.3765 C.3     1  ZINC000484424341    0.1000
     23 C23         2.7238   -0.0131   41.8897 C.3     1  ZINC000484424341   -0.1300
     24 C24         3.3172    1.3719   41.5422 C.3     1  ZINC000484424341   -0.1600
     25 C25         2.6706    2.3108   42.5367 C.2     1  ZINC000484424341    0.5200
     26 O26         2.6449    3.5191   42.4359 O.2     1  ZINC000484424341   -0.5200
     27 C27         1.4011    1.2502   45.8985 C.3     1  ZINC000484424341    0.0900
     28 C28        -3.8435    1.5720   50.1755 C.ar    1  ZINC000484424341   -0.1300
     29 H29        -7.0206    3.3691   48.6071 H       1  ZINC000484424341    0.0400
     30 H30        -7.8503    4.3955   49.8014 H       1  ZINC000484424341    0.0900
     31 H31        -6.1017    4.0962   49.9471 H       1  ZINC000484424341    0.0400
     32 H32        -6.7976    0.6202   52.2658 H       1  ZINC000484424341    0.0700
     33 H33        -7.7009   -0.0896   50.9063 H       1  ZINC000484424341    0.0600
     34 H34        -5.9821   -0.4900   51.1385 H       1  ZINC000484424341    0.0700
     35 H35        -5.8348    3.2787   52.2957 H       1  ZINC000484424341    0.1300
     36 H36        -3.6528    4.1522   53.0262 H       1  ZINC000484424341    0.1300
     37 H37        -1.5875    3.3808   51.9332 H       1  ZINC000484424341    0.1300
     38 H38        -0.7853    1.1177   50.4624 H       1  ZINC000484424341    0.4200
     39 H39        -1.6675    1.7814   45.7415 H       1  ZINC000484424341    0.0800
     40 H40        -0.9080    3.3500   46.1308 H       1  ZINC000484424341    0.0800
     41 H41        -0.4418    1.5406   43.7672 H       1  ZINC000484424341    0.0900
     42 H42        -0.2794    3.3234   43.8874 H       1  ZINC000484424341    0.0900
     43 H43         3.1594   -0.1736   44.0167 H       1  ZINC000484424341    0.0800
     44 H44         1.4308   -0.3758   43.6032 H       1  ZINC000484424341    0.0800
     45 H45         3.4702   -0.7984   41.7702 H       1  ZINC000484424341    0.0900
     46 H46         1.8405   -0.2216   41.2861 H       1  ZINC000484424341    0.0800
     47 H47         4.4000    1.3650   41.6666 H       1  ZINC000484424341    0.1100
     48 H48         3.0510    1.6565   40.5244 H       1  ZINC000484424341    0.1000
     49 H49         2.3072    1.3643   46.4936 H       1  ZINC000484424341    0.0900
     50 H50         1.2945    0.2187   45.5624 H       1  ZINC000484424341    0.0900
     51 H51        -3.8986    0.8491   49.3750 H       1  ZINC000484424341    0.1300
@<TRIPOS>BOND
     1     1     2    1
     2     1    29    1
     3     1    30    1
     4     1    31    1
     5     2     3    1
     6     3     4    1
     7     3     5    1
     8     3     6    1
     9     5    32    1
    10     5    33    1
    11     5    34    1
    12     6    28   ar
    13     6     7   ar
    14     7     8   ar
    15     7    35    1
    16     8     9   ar
    17     8    36    1
    18     9    10   ar
    19     9    37    1
    20    10    11    1
    21    10    28   ar
    22    11    12   am
    23    11    38    1
    24    12    13    2
    25    12    14    1
    26    14    15    2
    27    14    16   am
    28    16    27    1
    29    16    17    1
    30    17    18    1
    31    17    39    1
    32    17    40    1
    33    18    19    1
    34    18    41    1
    35    18    42    1
    36    19    20    1
    37    19    21    1
    38    19    27    1
    39    21    25   am
    40    21    22    1
    41    22    23    1
    42    22    43    1
    43    22    44    1
    44    23    24    1
    45    23    45    1
    46    23    46    1
    47    24    25    1
    48    24    47    1
    49    24    48    1
    50    25    26    2
    51    27    49    1
    52    27    50    1
    53    28    51    1
@<TRIPOS>SUBSTRUCTURE
     1 ZINC000484424341        1 TEMP              0 ****  ****    0 ROOT


##########                                Name:    ZINC000444811358
##########                DOCK_Rotatable_Bonds:                  11
##########                         Heavy_Atoms:                  27
##########                    Molecular_Weight:             374.455
##########                DOCK_Rotatable_Bonds:                  11
##########                       Formal_Charge:          0.00999966
##########                     HBond_Acceptors:                   6
##########                        HBond_Donors:                   2
##########                         Heavy_Atoms:                  27
##########                          Grid_Score:          -32.520962
##########                     Grid_vdw_energy:          -32.431007
##########                      Grid_es_energy:           -0.089956
##########           Internal_energy_repulsive:           19.585415

@<TRIPOS>MOLECULE
ZINC000444811358
 54 55 1 0 0
SMALL
USER_CHARGES


@<TRIPOS>ATOM
      1 C1         -7.5509    1.8306   52.2874 C.3     1  ZINC000444811358   -0.1100
      2 C2         -6.1660    1.5516   51.7626 C.ar    1  ZINC000444811358   -0.1300
      3 C3         -5.9230    0.4027   51.0336 C.ar    1  ZINC000444811358   -0.0700
      4 C4         -4.6546    0.1435   50.5514 C.ar    1  ZINC000444811358   -0.1500
      5 C5         -3.6220    1.0384   50.7987 C.ar    1  ZINC000444811358    0.1700
      6 N6         -2.3369    0.7778   50.3108 N.am    1  ZINC000444811358   -0.6800
      7 C7         -1.9779    1.2182   49.0885 C.2     1  ZINC000444811358    0.5200
      8 O8         -2.7689    1.8405   48.4118 O.2     1  ZINC000444811358   -0.5000
      9 C9         -0.5937    0.9375   48.5630 C.3     1  ZINC000444811358    0.0200
     10 N10        -0.1705    2.0374   47.6861 N.3     1  ZINC000444811358   -0.5000
     11 C11         0.4035    3.1417   48.4664 C.3     1  ZINC000444811358    0.0200
     12 C12        -0.4596    4.3929   48.2908 C.3     1  ZINC000444811358    0.1100
     13 H13        -1.4842    4.0985   48.0640 H       1  ZINC000444811358    0.1200
     14 O14        -0.4397    5.1584   49.4972 O.3     1  ZINC000444811358   -0.5400
     15 C15         0.0946    5.2375   47.1416 C.3     1  ZINC000444811358    0.0300
     16 O16        -0.2273    4.6164   45.8956 O.3     1  ZINC000444811358   -0.3000
     17 C17         0.1674    5.2596   44.7655 C.ar    1  ZINC000444811358    0.1300
     18 C18        -0.1361    4.7270   43.5208 C.ar    1  ZINC000444811358   -0.2100
     19 C19         0.2659    5.3830   42.3735 C.ar    1  ZINC000444811358   -0.0800
     20 C20         0.9704    6.5692   42.4648 C.ar    1  ZINC000444811358   -0.1600
     21 C21         1.2744    7.1019   43.7039 C.ar    1  ZINC000444811358   -0.0800
     22 C22         0.8694    6.4529   44.8543 C.ar    1  ZINC000444811358   -0.1500
     23 C23         0.7767    1.5643   46.6678 C.3     1  ZINC000444811358    0.0700
     24 C24         1.7922    0.6204   47.3153 C.3     1  ZINC000444811358   -0.1400
     25 C25         0.0152    0.8187   45.5700 C.3     1  ZINC000444811358   -0.1900
     26 C26        -3.8671    2.1926   51.5309 C.ar    1  ZINC000444811358   -0.1500
     27 C27        -5.1401    2.4498   52.0069 C.ar    1  ZINC000444811358    0.1200
     28 F28        -5.3805    3.5722   52.7194 F       1  ZINC000444811358   -0.1300
     29 H29        -8.1138    2.3959   51.5447 H       1  ZINC000444811358    0.0700
     30 H30        -8.0598    0.8880   52.4889 H       1  ZINC000444811358    0.0700
     31 H31        -7.4807    2.4097   53.2081 H       1  ZINC000444811358    0.0700
     32 H32        -6.7259   -0.2936   50.8409 H       1  ZINC000444811358    0.1400
     33 H33        -4.4661   -0.7549   49.9825 H       1  ZINC000444811358    0.1300
     34 H34        -1.7042    0.2801   50.8520 H       1  ZINC000444811358    0.4100
     35 H35         0.1014    0.8507   49.3982 H       1  ZINC000444811358    0.1300
     36 H36        -0.6015    0.0051   47.9984 H       1  ZINC000444811358    0.0700
     37 H37         0.4325    2.8653   49.5203 H       1  ZINC000444811358    0.0500
     38 H38         1.4154    3.3464   48.1165 H       1  ZINC000444811358    0.1000
     39 H39         0.4438    5.2803   49.8713 H       1  ZINC000444811358    0.3700
     40 H40        -0.3477    6.2331   47.1763 H       1  ZINC000444811358    0.0600
     41 H41         1.1773    5.3174   47.2388 H       1  ZINC000444811358    0.0700
     42 H42        -0.6858    3.8001   43.4491 H       1  ZINC000444811358    0.1300
     43 H43         0.0299    4.9689   41.4044 H       1  ZINC000444811358    0.1200
     44 H44         1.2840    7.0804   41.5666 H       1  ZINC000444811358    0.1200
     45 H45         1.8252    8.0284   43.7726 H       1  ZINC000444811358    0.1300
     46 H46         1.1072    6.8693   45.8220 H       1  ZINC000444811358    0.1300
     47 H47         1.2988    2.4168   46.2332 H       1  ZINC000444811358    0.0900
     48 H48         1.2886   -0.2930   47.6321 H       1  ZINC000444811358    0.0500
     49 H49         2.5710    0.3743   46.5936 H       1  ZINC000444811358    0.0600
     50 H50         2.2401    1.1074   48.1814 H       1  ZINC000444811358    0.0700
     51 H51        -0.7081    1.4911   45.1088 H       1  ZINC000444811358    0.0500
     52 H52         0.7181    0.4677   44.8146 H       1  ZINC000444811358    0.0700
     53 H53        -0.5068   -0.0337   46.0046 H       1  ZINC000444811358    0.0600
     54 H54        -3.0659    2.8902   51.7251 H       1  ZINC000444811358    0.1500
@<TRIPOS>BOND
     1     1     2    1
     2     1    29    1
     3     1    30    1
     4     1    31    1
     5     2    27   ar
     6     2     3   ar
     7     3     4   ar
     8     3    32    1
     9     4     5   ar
    10     4    33    1
    11     5     6    1
    12     5    26   ar
    13     6     7   am
    14     6    34    1
    15     7     8    2
    16     7     9    1
    17     9    10    1
    18     9    35    1
    19     9    36    1
    20    10    11    1
    21    10    23    1
    22    11    12    1
    23    11    37    1
    24    11    38    1
    25    12    13    1
    26    12    14    1
    27    12    15    1
    28    14    39    1
    29    15    16    1
    30    15    40    1
    31    15    41    1
    32    16    17    1
    33    17    22   ar
    34    17    18   ar
    35    18    19   ar
    36    18    42    1
    37    19    20   ar
    38    19    43    1
    39    20    21   ar
    40    20    44    1
    41    21    22   ar
    42    21    45    1
    43    22    46    1
    44    23    24    1
    45    23    25    1
    46    23    47    1
    47    24    48    1
    48    24    49    1
    49    24    50    1
    50    25    51    1
    51    25    52    1
    52    25    53    1
    53    26    27   ar
    54    26    54    1
    55    27    28    1
@<TRIPOS>SUBSTRUCTURE
     1 ZINC000444811358        1 TEMP              0 ****  ****    0 ROOT


##########                                Name:    ZINC000265786263
##########                DOCK_Rotatable_Bonds:                   7
##########                         Heavy_Atoms:                  28
##########                    Molecular_Weight:             386.451
##########                DOCK_Rotatable_Bonds:                   7
##########                       Formal_Charge:           0.0499992
##########                     HBond_Acceptors:                   8
##########                        HBond_Donors:                   2
##########                         Heavy_Atoms:                  28
##########                          Grid_Score:          -32.511162
##########                     Grid_vdw_energy:          -30.700781
##########                      Grid_es_energy:           -1.810381
##########           Internal_energy_repulsive:           18.436253

@<TRIPOS>MOLECULE
ZINC000265786263
 54 57 1 0 0
SMALL
USER_CHARGES


@<TRIPOS>ATOM
      1 C1         -7.0703    3.7323   49.5094 C.3     1  ZINC000265786263   -0.1500
      2 C2         -6.6282    2.9597   50.7538 C.3     1  ZINC000265786263    0.1600
      3 C3         -7.5296    3.2969   51.9433 C.3     1  ZINC000265786263   -0.1600
      4 C4         -8.7276    2.3817   52.2036 C.3     1  ZINC000265786263   -0.1600
      5 C5         -7.5148    2.3378   53.1351 C.3     1  ZINC000265786263   -0.1600
      6 N6         -6.6310    1.5101   50.4919 N.am    1  ZINC000265786263   -0.7100
      7 C7         -5.3643    1.0873   50.6544 C.2     1  ZINC000265786263    0.7100
      8 O8         -5.0140   -0.0679   50.5121 O.2     1  ZINC000265786263   -0.5400
      9 N9         -4.5331    2.0805   50.9901 N.am    1  ZINC000265786263   -0.5600
     10 C10        -3.0980    1.9075   51.2285 C.3     1  ZINC000265786263    0.1000
     11 C11        -2.3551    2.0154   49.9217 C.2     1  ZINC000265786263    0.5100
     12 O12        -2.9372    1.8219   48.8755 O.2     1  ZINC000265786263   -0.5300
     13 N13        -1.0438    2.3269   49.9158 N.am    1  ZINC000265786263   -0.6100
     14 C14        -0.3170    2.5577   51.1735 C.3     1  ZINC000265786263    0.1100
     15 C15         0.9485    1.6935   51.1700 C.3     1  ZINC000265786263    0.0400
     16 N16         1.7188    1.9639   49.9488 N.3     1  ZINC000265786263   -0.5300
     17 C17         3.0213    1.2856   49.9870 C.3     1  ZINC000265786263    0.0900
     18 C18         3.8118    1.7822   51.1701 C.ar    1  ZINC000265786263   -0.0600
     19 C19         3.8018    3.1265   51.4922 C.ar    1  ZINC000265786263   -0.1300
     20 C20         4.5261    3.5854   52.5772 C.ar    1  ZINC000265786263   -0.1000
     21 C21         5.2616    2.7010   53.3419 C.ar    1  ZINC000265786263   -0.1400
     22 C22         5.2733    1.3513   53.0205 C.ar    1  ZINC000265786263    0.1100
     23 O23         5.9959    0.4791   53.7716 O.3     1  ZINC000265786263   -0.5000
     24 C24         4.5414    0.8927   51.9352 C.ar    1  ZINC000265786263   -0.1200
     25 C25         0.9632    1.5853   48.7474 C.3     1  ZINC000265786263    0.0400
     26 C26        -0.3003    2.4389   48.6518 C.3     1  ZINC000265786263    0.1200
     27 C27        -5.1789    3.2598   51.0810 C.2     1  ZINC000265786263    0.5400
     28 O28        -4.7001    4.3369   51.3646 O.2     1  ZINC000265786263   -0.4500
     29 H29        -6.4414    3.4512   48.6647 H       1  ZINC000265786263    0.0700
     30 H30        -8.1097    3.4938   49.2839 H       1  ZINC000265786263    0.0800
     31 H31        -6.9748    4.8025   49.6932 H       1  ZINC000265786263    0.0900
     32 H32        -7.6523    4.3594   52.1537 H       1  ZINC000265786263    0.1100
     33 H33        -9.6390    2.8420   52.5853 H       1  ZINC000265786263    0.1000
     34 H34        -8.8738    1.5393   51.5275 H       1  ZINC000265786263    0.1100
     35 H35        -6.8629    1.4665   53.0720 H       1  ZINC000265786263    0.1000
     36 H36        -7.6282    2.7692   54.1297 H       1  ZINC000265786263    0.1000
     37 H37        -7.3970    0.9663   50.2501 H       1  ZINC000265786263    0.4400
     38 H38        -2.7472    2.6817   51.9109 H       1  ZINC000265786263    0.1300
     39 H39        -2.9184    0.9267   51.6686 H       1  ZINC000265786263    0.1300
     40 H40        -0.0419    3.6096   51.2496 H       1  ZINC000265786263    0.0900
     41 H41        -0.9482    2.2794   52.0175 H       1  ZINC000265786263    0.0900
     42 H42         1.5550    1.9334   52.0433 H       1  ZINC000265786263    0.0900
     43 H43         0.6697    0.6402   51.1985 H       1  ZINC000265786263    0.0400
     44 H44         2.8684    0.2102   50.0778 H       1  ZINC000265786263    0.0900
     45 H45         3.5689    1.4985   49.0689 H       1  ZINC000265786263    0.0500
     46 H46         3.2275    3.8197   50.8954 H       1  ZINC000265786263    0.1200
     47 H47         4.5168    4.6361   52.8267 H       1  ZINC000265786263    0.1300
     48 H48         5.8274    3.0600   54.1889 H       1  ZINC000265786263    0.1300
     49 H49         6.4688    0.8917   54.5073 H       1  ZINC000265786263    0.3900
     50 H50         4.5490   -0.1575   51.6831 H       1  ZINC000265786263    0.1300
     51 H51         1.5805    1.7466   47.8635 H       1  ZINC000265786263    0.1000
     52 H52         0.6843    0.5334   48.8096 H       1  ZINC000265786263    0.0400
     53 H53        -0.9200    2.0848   47.8279 H       1  ZINC000265786263    0.1000
     54 H54        -0.0265    3.4809   48.4861 H       1  ZINC000265786263    0.0800
@<TRIPOS>BOND
     1     1     2    1
     2     1    29    1
     3     1    30    1
     4     1    31    1
     5     2    27    1
     6     2     3    1
     7     2     6    1
     8     3     5    1
     9     3     4    1
    10     3    32    1
    11     4     5    1
    12     4    33    1
    13     4    34    1
    14     5    35    1
    15     5    36    1
    16     6     7   am
    17     6    37    1
    18     7     8    2
    19     7     9   am
    20     9    10    1
    21     9    27   am
    22    10    11    1
    23    10    38    1
    24    10    39    1
    25    11    12    2
    26    11    13   am
    27    13    26    1
    28    13    14    1
    29    14    15    1
    30    14    40    1
    31    14    41    1
    32    15    16    1
    33    15    42    1
    34    15    43    1
    35    16    17    1
    36    16    25    1
    37    17    18    1
    38    17    44    1
    39    17    45    1
    40    18    24   ar
    41    18    19   ar
    42    19    20   ar
    43    19    46    1
    44    20    21   ar
    45    20    47    1
    46    21    22   ar
    47    21    48    1
    48    22    23    1
    49    22    24   ar
    50    23    49    1
    51    24    50    1
    52    25    26    1
    53    25    51    1
    54    25    52    1
    55    26    53    1
    56    26    54    1
    57    27    28    2
@<TRIPOS>SUBSTRUCTURE
     1 ZINC000265786263        1 TEMP              0 ****  ****    0 ROOT


##########                                Name:    ZINC001085711660
##########                DOCK_Rotatable_Bonds:                   8
##########                         Heavy_Atoms:                  25
##########                    Molecular_Weight:             347.414
##########                DOCK_Rotatable_Bonds:                   8
##########                       Formal_Charge:         -0.00999993
##########                     HBond_Acceptors:                   7
##########                        HBond_Donors:                   0
##########                         Heavy_Atoms:                  25
##########                          Grid_Score:          -32.501469
##########                     Grid_vdw_energy:          -31.353344
##########                      Grid_es_energy:           -1.148123
##########           Internal_energy_repulsive:           16.841625

@<TRIPOS>MOLECULE
ZINC001085711660
 50 52 1 0 0
SMALL
USER_CHARGES


@<TRIPOS>ATOM
      1 C1          3.6083    0.1548   40.5889 C.3     1  ZINC001085711660    0.0300
      2 O2          3.6818    0.3795   41.9981 O.3     1  ZINC001085711660   -0.3800
      3 C3          2.4204    0.6589   42.6088 C.3     1  ZINC001085711660    0.1400
      4 C4          2.6151    0.8767   44.0871 C.2     1  ZINC001085711660    0.0100
      5 C5          3.7343    1.3592   44.6707 C.2     1  ZINC001085711660   -0.1900
      6 C6          3.4937    1.4025   46.0530 C.2     1  ZINC001085711660   -0.1200
      7 C7          2.2240    0.9383   46.2450 C.2     1  ZINC001085711660   -0.0700
      8 C8          1.5415    0.8047   47.5362 C.2     1  ZINC001085711660    0.6000
      9 O9          2.1055    0.2647   48.4697 O.2     1  ZINC001085711660   -0.5200
     10 N10         0.2895    1.2798   47.6890 N.am    1  ZINC001085711660   -0.6000
     11 C11        -0.3896    1.9297   46.5652 C.3     1  ZINC001085711660    0.0700
     12 C12        -0.3923    1.1463   48.9788 C.3     1  ZINC001085711660    0.1300
     13 C13        -0.3622    2.4884   49.7128 C.3     1  ZINC001085711660    0.0000
     14 H14        -0.7444    3.3093   49.1060 H       1  ZINC001085711660    0.1000
     15 C15         0.9895    2.7940   50.3733 C.3     1  ZINC001085711660   -0.1400
     16 C16         0.1153    3.3530   51.5047 C.3     1  ZINC001085711660    0.0100
     17 N17        -0.9512    2.4327   51.0638 N.3     1  ZINC001085711660   -0.4500
     18 C18        -2.2629    3.0933   51.0955 C.3     1  ZINC001085711660    0.1500
     19 H19        -2.3112    3.8433   50.3061 H       1  ZINC001085711660    0.1000
     20 C20        -2.4609    3.7690   52.4539 C.3     1  ZINC001085711660   -0.1900
     21 C21        -3.3467    2.0683   50.8815 C.2     1  ZINC001085711660    0.2000
     22 N22        -3.1626    0.8402   50.4884 N.2     1  ZINC001085711660   -0.4700
     23 C23        -4.3575    0.2282   50.4119 C.2     1  ZINC001085711660   -0.0400
     24 C24        -5.2959    1.1194   50.7720 C.2     1  ZINC001085711660   -0.0500
     25 C25        -6.7820    0.8780   50.8365 C.3     1  ZINC001085711660   -0.0700
     26 O26        -4.6579    2.2684   51.0698 O.3     1  ZINC001085711660   -0.2000
     27 O27         1.7055    0.6292   45.0385 O.3     1  ZINC001085711660   -0.1500
     28 H28         2.9591   -0.6978   40.3903 H       1  ZINC001085711660    0.0500
     29 H29         3.2037    1.0413   40.1002 H       1  ZINC001085711660    0.0500
     30 H30         4.6062   -0.0502   40.2011 H       1  ZINC001085711660    0.0900
     31 H31         1.9915    1.5561   42.1627 H       1  ZINC001085711660    0.0900
     32 H32         1.7462   -0.1830   42.4513 H       1  ZINC001085711660    0.0700
     33 H33         4.6431    1.6558   44.1682 H       1  ZINC001085711660    0.1600
     34 H34         4.1799    1.7379   46.8166 H       1  ZINC001085711660    0.1600
     35 H35        -0.8475    1.1716   45.9299 H       1  ZINC001085711660    0.0600
     36 H36        -1.1609    2.5995   46.9452 H       1  ZINC001085711660    0.0900
     37 H37         0.3344    2.5014   45.9847 H       1  ZINC001085711660    0.0800
     38 H38        -1.4269    0.8458   48.8135 H       1  ZINC001085711660    0.0900
     39 H39         0.1136    0.3915   49.5808 H       1  ZINC001085711660    0.0900
     40 H40         1.5624    1.9083   50.6479 H       1  ZINC001085711660    0.1000
     41 H41         1.5807    3.5472   49.8524 H       1  ZINC001085711660    0.0800
     42 H42         0.4984    3.1294   52.5003 H       1  ZINC001085711660    0.0900
     43 H43        -0.1400    4.4049   51.3769 H       1  ZINC001085711660    0.0800
     44 H44        -2.3045    3.0397   53.2487 H       1  ZINC001085711660    0.0800
     45 H45        -1.7451    4.5837   52.5622 H       1  ZINC001085711660    0.0800
     46 H46        -3.4744    4.1649   52.5183 H       1  ZINC001085711660    0.0700
     47 H47        -4.5315   -0.7954   50.1144 H       1  ZINC001085711660    0.1800
     48 H48        -7.0491    0.5200   51.8308 H       1  ZINC001085711660    0.0800
     49 H49        -7.3106    1.8089   50.6314 H       1  ZINC001085711660    0.0800
     50 H50        -7.0612    0.1304   50.0940 H       1  ZINC001085711660    0.0900
@<TRIPOS>BOND
     1     1     2    1
     2     1    28    1
     3     1    29    1
     4     1    30    1
     5     2     3    1
     6     3     4    1
     7     3    31    1
     8     3    32    1
     9     4    27    1
    10     4     5    2
    11     5     6    1
    12     5    33    1
    13     6     7    2
    14     6    34    1
    15     7     8    1
    16     7    27    1
    17     8     9    2
    18     8    10   am
    19    10    11    1
    20    10    12    1
    21    11    35    1
    22    11    36    1
    23    11    37    1
    24    12    13    1
    25    12    38    1
    26    12    39    1
    27    13    14    1
    28    13    17    1
    29    13    15    1
    30    15    16    1
    31    15    40    1
    32    15    41    1
    33    16    17    1
    34    16    42    1
    35    16    43    1
    36    17    18    1
    37    18    19    1
    38    18    20    1
    39    18    21    1
    40    20    44    1
    41    20    45    1
    42    20    46    1
    43    21    26    1
    44    21    22    2
    45    22    23    1
    46    23    24    2
    47    23    47    1
    48    24    25    1
    49    24    26    1
    50    25    48    1
    51    25    49    1
    52    25    50    1
@<TRIPOS>SUBSTRUCTURE
     1 ZINC001085711660        1 TEMP              0 ****  ****    0 ROOT


##########                                Name:    ZINC000848949366
##########                DOCK_Rotatable_Bonds:                   8
##########                         Heavy_Atoms:                  25
##########                    Molecular_Weight:             368.773
##########                DOCK_Rotatable_Bonds:                   8
##########                       Formal_Charge:          0.00999947
##########                     HBond_Acceptors:                   9
##########                        HBond_Donors:                   3
##########                         Heavy_Atoms:                  25
##########                          Grid_Score:          -32.481182
##########                     Grid_vdw_energy:          -33.366745
##########                      Grid_es_energy:            0.885564
##########           Internal_energy_repulsive:           10.442307

@<TRIPOS>MOLECULE
ZINC000848949366
 42 43 1 0 0
SMALL
USER_CHARGES


@<TRIPOS>ATOM
      1 C1         -0.1263    3.9771   54.3715 C.3     1  ZINC000848949366   -0.1500
      2 C2         -0.5035    3.6773   52.9193 C.3     1  ZINC000848949366    0.0600
      3 O3         -1.8783    3.2932   52.8540 O.3     1  ZINC000848949366   -0.3500
      4 C4         -2.4587    3.2987   51.6356 C.2     1  ZINC000848949366    0.5400
      5 O5         -2.0656    4.0671   50.7779 O.2     1  ZINC000848949366   -0.4800
      6 C6         -3.5240    2.4111   51.3556 C.2     1  ZINC000848949366   -0.2300
      7 C7         -3.3574    1.3615   50.5223 C.2     1  ZINC000848949366    0.2000
      8 C8         -2.0139    1.1311   49.8796 C.3     1  ZINC000848949366    0.1000
      9 O9         -1.9259    1.9018   48.6522 O.3     1  ZINC000848949366   -0.3500
     10 C10        -1.0015    1.5144   47.7516 C.2     1  ZINC000848949366    0.5100
     11 O11        -0.4831    0.4193   47.8455 O.2     1  ZINC000848949366   -0.4800
     12 C12        -0.6192    2.4185   46.6528 C.ar    1  ZINC000848949366   -0.1600
     13 C13        -0.3713    3.7700   46.9088 C.ar    1  ZINC000848949366   -0.0300
     14 C14        -0.0143    4.6104   45.8774 C.ar    1  ZINC000848949366   -0.1300
     15 C15         0.1002    4.1217   44.5847 C.ar    1  ZINC000848949366    0.0200
     16 Cl16        0.5503    5.1921   43.2942 Cl      1  ZINC000848949366   -0.0500
     17 C17        -0.1417    2.7870   44.3179 C.ar    1  ZINC000848949366   -0.1500
     18 C18        -0.4963    1.9265   45.3449 C.ar    1  ZINC000848949366    0.1900
     19 O19        -0.7341    0.6167   45.0847 O.3     1  ZINC000848949366   -0.4700
     20 N20        -4.3865    0.5052   50.2531 N.am    1  ZINC000848949366   -0.6400
     21 C21        -5.6125    0.6299   50.7767 C.2     1  ZINC000848949366    0.7100
     22 O22        -6.4651   -0.1832   50.4773 O.2     1  ZINC000848949366   -0.5600
     23 N23        -5.9320    1.6271   51.6251 N.am    1  ZINC000848949366   -0.7100
     24 C24        -4.8889    2.6022   51.9850 C.3     1  ZINC000848949366    0.2000
     25 H25        -4.7723    2.5848   53.0687 H       1  ZINC000848949366    0.0900
     26 C26        -5.3879    3.9938   51.5909 C.3     1  ZINC000848949366   -0.1700
     27 H27         0.9224    4.2701   54.4214 H       1  ZINC000848949366    0.0800
     28 H28        -0.7487    4.7886   54.7484 H       1  ZINC000848949366    0.0700
     29 H29        -0.2839    3.0859   54.9791 H       1  ZINC000848949366    0.0700
     30 H30        -0.3459    4.5684   52.3117 H       1  ZINC000848949366    0.0700
     31 H31         0.1189    2.8657   52.5424 H       1  ZINC000848949366    0.0700
     32 H32        -1.2254    1.4456   50.5633 H       1  ZINC000848949366    0.1100
     33 H33        -1.8967    0.0715   49.6526 H       1  ZINC000848949366    0.1000
     34 H34        -0.4599    4.1550   47.9139 H       1  ZINC000848949366    0.1500
     35 H35         0.1769    5.6545   46.0764 H       1  ZINC000848949366    0.1500
     36 H36        -0.0507    2.4136   43.3085 H       1  ZINC000848949366    0.1500
     37 H37        -0.9605    0.0951   45.8669 H       1  ZINC000848949366    0.4000
     38 H38        -4.2200   -0.2349   49.6486 H       1  ZINC000848949366    0.4300
     39 H39        -6.8269    1.6988   51.9925 H       1  ZINC000848949366    0.4400
     40 H40        -6.3109    4.2142   52.1271 H       1  ZINC000848949366    0.0700
     41 H41        -4.6325    4.7367   51.8472 H       1  ZINC000848949366    0.0700
     42 H42        -5.5756    4.0219   50.5175 H       1  ZINC000848949366    0.0700
@<TRIPOS>BOND
     1     1     2    1
     2     1    27    1
     3     1    28    1
     4     1    29    1
     5     2     3    1
     6     2    30    1
     7     2    31    1
     8     3     4    1
     9     4     5    2
    10     4     6    1
    11     6    24    1
    12     6     7    2
    13     7     8    1
    14     7    20    1
    15     8     9    1
    16     8    32    1
    17     8    33    1
    18     9    10    1
    19    10    11    2
    20    10    12    1
    21    12    18   ar
    22    12    13   ar
    23    13    14   ar
    24    13    34    1
    25    14    15   ar
    26    14    35    1
    27    15    16    1
    28    15    17   ar
    29    17    18   ar
    30    17    36    1
    31    18    19    1
    32    19    37    1
    33    20    21   am
    34    20    38    1
    35    21    22    2
    36    21    23   am
    37    23    24    1
    38    23    39    1
    39    24    25    1
    40    24    26    1
    41    26    40    1
    42    26    41    1
    43    26    42    1
@<TRIPOS>SUBSTRUCTURE
     1 ZINC000848949366        1 TEMP              0 ****  ****    0 ROOT


##########                                Name:    ZINC000464752079
##########                DOCK_Rotatable_Bonds:                   7
##########                         Heavy_Atoms:                  29
##########                    Molecular_Weight:             404.413
##########                DOCK_Rotatable_Bonds:                   7
##########                       Formal_Charge:         7.45058e-08
##########                     HBond_Acceptors:                   8
##########                        HBond_Donors:                   1
##########                         Heavy_Atoms:                  29
##########                          Grid_Score:          -32.471550
##########                     Grid_vdw_energy:          -31.494087
##########                      Grid_es_energy:           -0.977463
##########           Internal_energy_repulsive:           16.221140

@<TRIPOS>MOLECULE
ZINC000464752079
 51 54 1 0 0
SMALL
USER_CHARGES


@<TRIPOS>ATOM
      1 C1          0.1845    5.8316   44.7992 C.3     1  ZINC000464752079   -0.1200
      2 C2          1.3656    5.2308   45.5170 C.ar    1  ZINC000464752079   -0.0800
      3 C3          2.4963    5.9923   45.7447 C.ar    1  ZINC000464752079   -0.1200
      4 C4          3.5799    5.4411   46.4032 C.ar    1  ZINC000464752079   -0.1200
      5 C5          3.5323    4.1287   46.8340 C.ar    1  ZINC000464752079   -0.1300
      6 C6          2.4009    3.3673   46.6071 C.ar    1  ZINC000464752079   -0.0900
      7 C7          1.3159    3.9196   45.9526 C.ar    1  ZINC000464752079   -0.0800
      8 C8          0.0827    3.0896   45.7052 C.3     1  ZINC000464752079    0.2000
      9 H9         -0.7941    3.7351   45.6535 H       1  ZINC000464752079    0.0900
     10 C10         0.2347    2.3041   44.3856 C.3     1  ZINC000464752079   -0.1200
     11 C11        -0.4179    0.9363   44.7182 C.3     1  ZINC000464752079   -0.1300
     12 C12        -0.0126    0.7509   46.2018 C.3     1  ZINC000464752079    0.1000
     13 N13        -0.0833    2.1064   46.7856 N.am    1  ZINC000464752079   -0.6300
     14 C14        -0.2660    2.3912   48.0902 C.2     1  ZINC000464752079    0.7200
     15 O15        -0.3090    3.5488   48.4595 O.2     1  ZINC000464752079   -0.5700
     16 N16        -0.4008    1.3928   48.9854 N.am    1  ZINC000464752079   -0.7400
     17 C17        -0.6011    1.7024   50.4032 C.3     1  ZINC000464752079    0.1900
     18 C18        -2.0772    1.7806   50.6966 C.ar    1  ZINC000464752079   -0.1200
     19 C19        -2.9136    0.7512   50.3079 C.ar    1  ZINC000464752079   -0.0500
     20 C20        -4.2710    0.8202   50.5756 C.ar    1  ZINC000464752079    0.0100
     21 C21        -4.7929    1.9285   51.2378 C.ar    1  ZINC000464752079    0.0800
     22 C22        -3.9525    2.9585   51.6275 C.ar    1  ZINC000464752079   -0.1800
     23 C23        -2.5939    2.8828   51.3614 C.ar    1  ZINC000464752079    0.1400
     24 O24        -1.7690    3.8937   51.7442 O.3     1  ZINC000464752079   -0.3100
     25 C25        -1.3783    3.9271   53.1183 C.3     1  ZINC000464752079    0.4100
     26 F26        -0.1855    4.6468   53.2466 F       1  ZINC000464752079   -0.2000
     27 F27        -2.3802    4.5464   53.8731 F       1  ZINC000464752079   -0.2000
     28 O28        -6.1397    1.7578   51.3798 O.3     1  ZINC000464752079   -0.3000
     29 C29        -6.4985    0.7283   50.4393 C.3     1  ZINC000464752079    0.2100
     30 O30        -5.2919   -0.0455   50.3026 O.3     1  ZINC000464752079   -0.3000
     31 H31        -0.4872    6.2898   45.5252 H       1  ZINC000464752079    0.0700
     32 H32         0.5328    6.5897   44.0977 H       1  ZINC000464752079    0.0700
     33 H33        -0.3464    5.0501   44.2558 H       1  ZINC000464752079    0.0700
     34 H34         2.5335    7.0178   45.4080 H       1  ZINC000464752079    0.1200
     35 H35         4.4637    6.0360   46.5804 H       1  ZINC000464752079    0.1200
     36 H36         4.3790    3.6979   47.3478 H       1  ZINC000464752079    0.1200
     37 H37         2.3637    2.3417   46.9434 H       1  ZINC000464752079    0.1100
     38 H38        -0.3016    2.8009   43.5770 H       1  ZINC000464752079    0.0900
     39 H39         1.2870    2.1776   44.1311 H       1  ZINC000464752079    0.0800
     40 H40        -1.5016    0.9845   44.6123 H       1  ZINC000464752079    0.0800
     41 H41        -0.0010    0.1433   44.0973 H       1  ZINC000464752079    0.0900
     42 H42        -0.7131    0.0852   46.7060 H       1  ZINC000464752079    0.0700
     43 H43         1.0020    0.3589   46.2717 H       1  ZINC000464752079    0.0700
     44 H44        -0.3653    0.4692   48.6909 H       1  ZINC000464752079    0.4000
     45 H45        -0.1504    0.9195   51.0133 H       1  ZINC000464752079    0.0800
     46 H46        -0.1332    2.6590   50.6359 H       1  ZINC000464752079    0.0800
     47 H47        -2.5084   -0.1081   49.7943 H       1  ZINC000464752079    0.1500
     48 H48        -4.3551    3.8190   52.1413 H       1  ZINC000464752079    0.1500
     49 H49        -1.2290    2.9092   53.4784 H       1  ZINC000464752079    0.1900
     50 H50        -7.3058    0.1122   50.8352 H       1  ZINC000464752079    0.1400
     51 H51        -6.7832    1.1660   49.4825 H       1  ZINC000464752079    0.0900
@<TRIPOS>BOND
     1     1     2    1
     2     1    31    1
     3     1    32    1
     4     1    33    1
     5     2     7   ar
     6     2     3   ar
     7     3     4   ar
     8     3    34    1
     9     4     5   ar
    10     4    35    1
    11     5     6   ar
    12     5    36    1
    13     6     7   ar
    14     6    37    1
    15     7     8    1
    16     8     9    1
    17     8    13    1
    18     8    10    1
    19    10    11    1
    20    10    38    1
    21    10    39    1
    22    11    12    1
    23    11    40    1
    24    11    41    1
    25    12    13    1
    26    12    42    1
    27    12    43    1
    28    13    14   am
    29    14    15    2
    30    14    16   am
    31    16    17    1
    32    16    44    1
    33    17    18    1
    34    17    45    1
    35    17    46    1
    36    18    23   ar
    37    18    19   ar
    38    19    20   ar
    39    19    47    1
    40    20    30    1
    41    20    21   ar
    42    21    22   ar
    43    21    28    1
    44    22    23   ar
    45    22    48    1
    46    23    24    1
    47    24    25    1
    48    25    26    1
    49    25    27    1
    50    25    49    1
    51    28    29    1
    52    29    30    1
    53    29    50    1
    54    29    51    1
@<TRIPOS>SUBSTRUCTURE
     1 ZINC000464752079        1 TEMP              0 ****  ****    0 ROOT


##########                                Name:    ZINC000805177769
##########                DOCK_Rotatable_Bonds:                  10
##########                         Heavy_Atoms:                  30
##########                    Molecular_Weight:             417.548
##########                DOCK_Rotatable_Bonds:                  10
##########                       Formal_Charge:           0.0199995
##########                     HBond_Acceptors:                   7
##########                        HBond_Donors:                   1
##########                         Heavy_Atoms:                  30
##########                          Grid_Score:          -32.454094
##########                     Grid_vdw_energy:          -31.297461
##########                      Grid_es_energy:           -1.156633
##########           Internal_energy_repulsive:           31.110535

@<TRIPOS>MOLECULE
ZINC000805177769
 65 66 1 0 0
SMALL
USER_CHARGES


@<TRIPOS>ATOM
      1 C1         -2.6888    0.9110   49.8169 C.3     1  ZINC000805177769   -0.1200
      2 C2         -2.7648    2.0171   50.8377 C.ar    1  ZINC000805177769   -0.0800
      3 C3         -1.6072    2.6263   51.2839 C.ar    1  ZINC000805177769   -0.1200
      4 C4         -1.6769    3.6411   52.2205 C.ar    1  ZINC000805177769   -0.1100
      5 C5         -2.9042    4.0463   52.7103 C.ar    1  ZINC000805177769   -0.0900
      6 C6         -2.9801    5.1520   53.7314 C.3     1  ZINC000805177769   -0.0900
      7 C7         -2.9038    4.5536   55.1375 C.3     1  ZINC000805177769    0.1500
      8 H8         -3.3267    3.5490   55.1284 H       1  ZINC000805177769    0.1000
      9 C9         -3.6956    5.4313   56.1089 C.3     1  ZINC000805177769   -0.1700
     10 N10        -1.5044    4.4904   55.5661 N.am    1  ZINC000805177769   -0.6900
     11 C11        -1.0237    3.3667   56.1343 C.2     1  ZINC000805177769    0.5100
     12 O12        -1.7505    2.4079   56.2922 O.2     1  ZINC000805177769   -0.5100
     13 C13         0.4044    3.3017   56.5698 C.2     1  ZINC000805177769    0.5200
     14 O14         1.2784    3.7412   55.8519 O.2     1  ZINC000805177769   -0.5200
     15 N15         0.7216    2.7547   57.7601 N.am    1  ZINC000805177769   -0.5900
     16 C16         2.0792    2.6268   58.3098 C.3     1  ZINC000805177769    0.1100
     17 C17         1.9506    1.9682   59.6995 C.3     1  ZINC000805177769   -0.1500
     18 C18         0.4829    2.2778   60.0963 C.3     1  ZINC000805177769    0.1500
     19 H19         0.3950    3.2793   60.5175 H       1  ZINC000805177769    0.1200
     20 N20        -0.0323    1.2719   61.0286 N.am    1  ZINC000805177769   -0.5900
     21 C21         0.3086   -0.1409   60.8439 C.3     1  ZINC000805177769    0.0800
     22 C22        -0.8200    1.6462   62.0561 C.2     1  ZINC000805177769    0.6600
     23 O23        -1.2487    0.8117   62.8284 O.2     1  ZINC000805177769   -0.5600
     24 O24        -1.1322    2.9447   62.2268 O.3     1  ZINC000805177769   -0.3600
     25 C25        -0.8511    3.5248   63.5279 C.3     1  ZINC000805177769    0.1400
     26 C26         0.5048    3.0224   64.0282 C.3     1  ZINC000805177769   -0.1800
     27 C27        -0.8180    5.0498   63.4100 C.3     1  ZINC000805177769   -0.1400
     28 C28        -1.9439    3.1132   64.5165 C.3     1  ZINC000805177769   -0.1800
     29 C29        -0.2359    2.1914   58.7293 C.3     1  ZINC000805177769    0.0900
     30 C30        -4.0622    3.4378   52.2629 C.ar    1  ZINC000805177769   -0.0800
     31 C31        -5.4003    3.8800   52.7965 C.3     1  ZINC000805177769   -0.1200
     32 C32        -3.9928    2.4260   51.3237 C.ar    1  ZINC000805177769   -0.1200
     33 H33        -2.7389    1.3373   48.8150 H       1  ZINC000805177769    0.0700
     34 H34        -1.7494    0.3711   49.9354 H       1  ZINC000805177769    0.0700
     35 H35        -3.5232    0.2248   49.9619 H       1  ZINC000805177769    0.0700
     36 H36        -0.6483    2.3097   50.9012 H       1  ZINC000805177769    0.1200
     37 H37        -0.7723    4.1166   52.5696 H       1  ZINC000805177769    0.1200
     38 H38        -2.1481    5.8405   53.5840 H       1  ZINC000805177769    0.0800
     39 H39        -3.9214    5.6894   53.6158 H       1  ZINC000805177769    0.0900
     40 H40        -3.2727    6.4359   56.1181 H       1  ZINC000805177769    0.0600
     41 H41        -4.7369    5.4783   55.7900 H       1  ZINC000805177769    0.0700
     42 H42        -3.6413    5.0050   57.1107 H       1  ZINC000805177769    0.0600
     43 H43        -0.9237    5.2572   55.4409 H       1  ZINC000805177769    0.4100
     44 H44         2.6859    1.9992   57.6569 H       1  ZINC000805177769    0.0900
     45 H45         2.5340    3.6125   58.4074 H       1  ZINC000805177769    0.0900
     46 H46         2.1135    0.8925   59.6331 H       1  ZINC000805177769    0.0900
     47 H47         2.6451    2.4215   60.4069 H       1  ZINC000805177769    0.0900
     48 H48         1.2241   -0.3682   61.3901 H       1  ZINC000805177769    0.0600
     49 H49        -0.5033   -0.7628   61.2207 H       1  ZINC000805177769    0.0800
     50 H50         0.4587   -0.3427   59.7832 H       1  ZINC000805177769    0.0800
     51 H51         1.2833    3.3155   63.3238 H       1  ZINC000805177769    0.0600
     52 H52         0.7157    3.4578   65.0049 H       1  ZINC000805177769    0.0700
     53 H53         0.4811    1.9358   64.1122 H       1  ZINC000805177769    0.0900
     54 H54        -1.7839    5.4078   63.0536 H       1  ZINC000805177769    0.0700
     55 H55        -0.6070    5.4853   64.3866 H       1  ZINC000805177769    0.0800
     56 H56        -0.0394    5.3430   62.7056 H       1  ZINC000805177769    0.0700
     57 H57        -1.9675    2.0268   64.6006 H       1  ZINC000805177769    0.0900
     58 H58        -1.7329    3.5488   65.4932 H       1  ZINC000805177769    0.0700
     59 H59        -2.9098    3.4712   64.1601 H       1  ZINC000805177769    0.0600
     60 H60        -1.1540    2.7784   58.7456 H       1  ZINC000805177769    0.0900
     61 H61        -0.4531    1.1527   58.4799 H       1  ZINC000805177769    0.0800
     62 H62        -5.7952    4.6795   52.1696 H       1  ZINC000805177769    0.0700
     63 H63        -6.0913    3.0371   52.7885 H       1  ZINC000805177769    0.0700
     64 H64        -5.2824    4.2434   53.8174 H       1  ZINC000805177769    0.0700
     65 H65        -4.8973    1.9506   50.9743 H       1  ZINC000805177769    0.1200
@<TRIPOS>BOND
     1     1     2    1
     2     1    33    1
     3     1    34    1
     4     1    35    1
     5     2    32   ar
     6     2     3   ar
     7     3     4   ar
     8     3    36    1
     9     4     5   ar
    10     4    37    1
    11     5     6    1
    12     5    30   ar
    13     6     7    1
    14     6    38    1
    15     6    39    1
    16     7     8    1
    17     7     9    1
    18     7    10    1
    19     9    40    1
    20     9    41    1
    21     9    42    1
    22    10    11   am
    23    10    43    1
    24    11    12    2
    25    11    13    1
    26    13    14    2
    27    13    15   am
    28    15    29    1
    29    15    16    1
    30    16    17    1
    31    16    44    1
    32    16    45    1
    33    17    18    1
    34    17    46    1
    35    17    47    1
    36    18    19    1
    37    18    20    1
    38    18    29    1
    39    20    21    1
    40    20    22   am
    41    21    48    1
    42    21    49    1
    43    21    50    1
    44    22    23    2
    45    22    24    1
    46    24    25    1
    47    25    26    1
    48    25    27    1
    49    25    28    1
    50    26    51    1
    51    26    52    1
    52    26    53    1
    53    27    54    1
    54    27    55    1
    55    27    56    1
    56    28    57    1
    57    28    58    1
    58    28    59    1
    59    29    60    1
    60    29    61    1
    61    30    31    1
    62    30    32   ar
    63    31    62    1
    64    31    63    1
    65    31    64    1
    66    32    65    1
@<TRIPOS>SUBSTRUCTURE
     1 ZINC000805177769        1 TEMP              0 ****  ****    0 ROOT


##########                                Name:    ZINC000624498741
##########                DOCK_Rotatable_Bonds:                   7
##########                         Heavy_Atoms:                  27
##########                    Molecular_Weight:             379.339
##########                DOCK_Rotatable_Bonds:                   7
##########                       Formal_Charge:           0.0300003
##########                     HBond_Acceptors:                   9
##########                        HBond_Donors:                   0
##########                         Heavy_Atoms:                  27
##########                          Grid_Score:          -32.432186
##########                     Grid_vdw_energy:          -31.787350
##########                      Grid_es_energy:           -0.644835
##########           Internal_energy_repulsive:            8.557902

@<TRIPOS>MOLECULE
ZINC000624498741
 43 45 1 0 0
SMALL
USER_CHARGES


@<TRIPOS>ATOM
      1 C1         -5.5244    0.1909   50.8077 C.3     1  ZINC000624498741   -0.1100
      2 C2         -4.5554    1.3312   50.9871 C.ar    1  ZINC000624498741   -0.0900
      3 C3         -3.2203    1.1508   50.7008 C.ar    1  ZINC000624498741   -0.0400
      4 C4         -2.3230    2.2086   50.8671 C.ar    1  ZINC000624498741   -0.0500
      5 C5         -0.8910    2.0196   50.5608 C.2     1  ZINC000624498741    0.2300
      6 N6         -0.3194    2.1073   49.3719 N.2     1  ZINC000624498741   -0.4700
      7 C7          0.9834    1.8617   49.5805 C.2     1  ZINC000624498741    0.1800
      8 C8          2.0647    1.8453   48.5310 C.3     1  ZINC000624498741   -0.0300
      9 C9          1.5970    1.0212   47.3297 C.3     1  ZINC000624498741   -0.1300
     10 C10         1.0707    1.9593   46.2416 C.3     1  ZINC000624498741    0.0900
     11 N11         0.6459    1.1718   45.0815 N.am    1  ZINC000624498741   -0.5000
     12 C12        -0.6320    0.7190   45.0093 C.2     1  ZINC000624498741    0.1300
     13 C13        -1.0476   -0.0106   43.9478 C.2     1  ZINC000624498741   -0.2300
     14 C14        -0.1544   -0.3053   42.9082 C.2     1  ZINC000624498741   -0.0200
     15 C15         1.1289    0.1508   42.9823 C.2     1  ZINC000624498741   -0.2400
     16 C16         1.5258    0.9101   44.0964 C.2     1  ZINC000624498741    0.5100
     17 O17         2.6711    1.3245   44.1755 O.2     1  ZINC000624498741   -0.5500
     18 N18         1.1442    1.6413   50.8520 N.2     1  ZINC000624498741   -0.3700
     19 O19         0.0850    1.7311   51.4359 O.3     1  ZINC000624498741    0.0900
     20 C20        -2.7842    3.4455   51.3233 C.ar    1  ZINC000624498741   -0.0200
     21 C21        -4.1213    3.6178   51.6075 C.ar    1  ZINC000624498741   -0.1900
     22 C22        -5.0112    2.5649   51.4358 C.ar    1  ZINC000624498741    0.1300
     23 O23        -6.3281    2.7387   51.7171 O.3     1  ZINC000624498741   -0.3000
     24 C24        -7.1179    3.4123   50.7350 C.3     1  ZINC000624498741    0.6000
     25 F25        -8.4172    3.5890   51.2226 F       1  ZINC000624498741   -0.1600
     26 F26        -6.5507    4.6604   50.4562 F       1  ZINC000624498741   -0.1300
     27 F27        -7.1590    2.6469   49.5647 F       1  ZINC000624498741   -0.1600
     28 H28        -5.9224    0.2086   49.7931 H       1  ZINC000624498741    0.0800
     29 H29        -5.0091   -0.7541   50.9794 H       1  ZINC000624498741    0.0800
     30 H30        -6.3424    0.2936   51.5207 H       1  ZINC000624498741    0.0800
     31 H31        -2.8675    0.1928   50.3485 H       1  ZINC000624498741    0.1500
     32 H32         2.2763    2.8656   48.2113 H       1  ZINC000624498741    0.1000
     33 H33         2.9684    1.4001   48.9473 H       1  ZINC000624498741    0.1000
     34 H34         2.4339    0.4433   46.9375 H       1  ZINC000624498741    0.0800
     35 H35         0.8018    0.3439   47.6411 H       1  ZINC000624498741    0.0800
     36 H36         0.2222    2.5239   46.6278 H       1  ZINC000624498741    0.1100
     37 H37         1.8605    2.6488   45.9431 H       1  ZINC000624498741    0.1000
     38 H38        -1.3241    0.9432   45.8074 H       1  ZINC000624498741    0.1600
     39 H39        -2.0665   -0.3660   43.9019 H       1  ZINC000624498741    0.1500
     40 H40        -0.4788   -0.8873   42.0582 H       1  ZINC000624498741    0.1400
     41 H41         1.8316   -0.0659   42.1913 H       1  ZINC000624498741    0.1500
     42 H42        -2.0936    4.2656   51.4536 H       1  ZINC000624498741    0.1500
     43 H43        -4.4787    4.5738   51.9607 H       1  ZINC000624498741    0.1500
@<TRIPOS>BOND
     1     1     2    1
     2     1    28    1
     3     1    29    1
     4     1    30    1
     5     2    22   ar
     6     2     3   ar
     7     3     4   ar
     8     3    31    1
     9     4     5    1
    10     4    20   ar
    11     5    19    1
    12     5     6    2
    13     6     7    1
    14     7     8    1
    15     7    18    2
    16     8     9    1
    17     8    32    1
    18     8    33    1
    19     9    10    1
    20     9    34    1
    21     9    35    1
    22    10    11    1
    23    10    36    1
    24    10    37    1
    25    11    16   am
    26    11    12    1
    27    12    13    2
    28    12    38    1
    29    13    14    1
    30    13    39    1
    31    14    15    2
    32    14    40    1
    33    15    16    1
    34    15    41    1
    35    16    17    2
    36    18    19    1
    37    20    21   ar
    38    20    42    1
    39    21    22   ar
    40    21    43    1
    41    22    23    1
    42    23    24    1
    43    24    25    1
    44    24    26    1
    45    24    27    1
@<TRIPOS>SUBSTRUCTURE
     1 ZINC000624498741        1 TEMP              0 ****  ****    0 ROOT


##########                                Name:    ZINC001296589646
##########                DOCK_Rotatable_Bonds:                   8
##########                         Heavy_Atoms:                  29
##########                    Molecular_Weight:             398.548
##########                DOCK_Rotatable_Bonds:                   8
##########                       Formal_Charge:          -0.0200008
##########                     HBond_Acceptors:                   6
##########                        HBond_Donors:                   0
##########                         Heavy_Atoms:                  29
##########                          Grid_Score:          -32.400665
##########                     Grid_vdw_energy:          -32.312737
##########                      Grid_es_energy:           -0.087930
##########           Internal_energy_repulsive:           19.484491

@<TRIPOS>MOLECULE
ZINC001296589646
 63 66 1 0 0
SMALL
USER_CHARGES


@<TRIPOS>ATOM
      1 C1         -6.7620    5.7007   50.8085 C.3     1  ZINC001296589646   -0.1500
      2 C2         -7.4327    4.3372   50.9876 C.3     1  ZINC001296589646    0.0500
      3 O3         -6.5420    3.3075   50.5538 O.3     1  ZINC001296589646   -0.3600
      4 C4         -6.2650    2.3209   51.5497 C.3     1  ZINC001296589646    0.1800
      5 C5         -5.6836    2.9582   52.7854 C.2     1  ZINC001296589646    0.1500
      6 N6         -6.2288    2.9875   53.9685 N.2     1  ZINC001296589646   -0.2600
      7 N7         -5.4632    3.6113   54.7911 N.2     1  ZINC001296589646   -0.3200
      8 C8         -4.3797    4.0167   54.1719 C.2     1  ZINC001296589646    0.3600
      9 N9         -3.3262    4.7220   54.7315 N.3     1  ZINC001296589646   -0.4300
     10 C10        -3.7963    6.0004   55.3237 C.3     1  ZINC001296589646    0.0300
     11 C11        -2.6655    6.3681   56.3169 C.3     1  ZINC001296589646   -0.1200
     12 C12        -2.2486    4.9942   56.8902 C.3     1  ZINC001296589646   -0.1000
     13 H13        -2.7462    4.8151   57.8432 H       1  ZINC001296589646    0.0800
     14 C14        -0.7299    4.9302   57.0648 C.3     1  ZINC001296589646   -0.1400
     15 C15        -2.7122    3.9642   55.8433 C.3     1  ZINC001296589646    0.0500
     16 N16        -4.4836    3.6076   52.8743 N.pl3   1  ZINC001296589646   -0.4600
     17 C17        -3.5150    3.8273   51.7974 C.3     1  ZINC001296589646    0.1000
     18 C18        -2.3470    2.8517   51.9551 C.3     1  ZINC001296589646   -0.1300
     19 C19        -1.0891    3.4567   51.3287 C.3     1  ZINC001296589646   -0.0500
     20 H20        -1.1939    4.5403   51.2775 H       1  ZINC001296589646    0.0800
     21 C21         0.1282    3.1018   52.1848 C.3     1  ZINC001296589646   -0.1500
     22 C22        -0.9043    2.9037   49.9390 C.ar    1  ZINC001296589646   -0.0800
     23 C23        -0.8974    3.7566   48.8510 C.ar    1  ZINC001296589646   -0.1100
     24 C24        -0.7279    3.2494   47.5763 C.ar    1  ZINC001296589646   -0.1200
     25 C25        -0.5650    1.8894   47.3895 C.ar    1  ZINC001296589646   -0.1200
     26 C26        -0.5711    1.0367   48.4775 C.ar    1  ZINC001296589646   -0.1200
     27 C27        -0.7363    1.5444   49.7527 C.ar    1  ZINC001296589646   -0.1200
     28 C28        -5.3192    1.2226   50.9918 C.3     1  ZINC001296589646   -0.1400
     29 C29        -6.3359    0.2886   50.2882 C.3     1  ZINC001296589646    0.0600
     30 O30        -7.5030    0.3062   51.1255 O.3     1  ZINC001296589646   -0.3700
     31 C31        -7.5362    1.5150   51.8932 C.3     1  ZINC001296589646    0.0400
     32 H32        -5.8972    5.7697   51.4684 H       1  ZINC001296589646    0.0600
     33 H33        -6.4392    5.8136   49.7735 H       1  ZINC001296589646    0.0700
     34 H34        -7.4718    6.4901   51.0559 H       1  ZINC001296589646    0.0700
     35 H35        -7.6763    4.1875   52.0395 H       1  ZINC001296589646    0.0500
     36 H36        -8.3464    4.3010   50.3945 H       1  ZINC001296589646    0.0600
     37 H37        -3.8972    6.7665   54.5548 H       1  ZINC001296589646    0.0900
     38 H38        -4.7394    5.8564   55.8508 H       1  ZINC001296589646    0.0600
     39 H39        -1.8315    6.8375   55.7954 H       1  ZINC001296589646    0.0800
     40 H40        -3.0422    7.0175   57.1072 H       1  ZINC001296589646    0.0800
     41 H41        -0.4128    5.6975   57.7711 H       1  ZINC001296589646    0.0600
     42 H42        -0.4489    3.9481   57.4448 H       1  ZINC001296589646    0.0600
     43 H43        -0.2461    5.0997   56.1028 H       1  ZINC001296589646    0.0600
     44 H44        -3.4474    3.2914   56.2847 H       1  ZINC001296589646    0.0800
     45 H45        -1.8571    3.3957   55.4777 H       1  ZINC001296589646    0.0900
     46 H46        -3.9986    3.6626   50.8345 H       1  ZINC001296589646    0.1100
     47 H47        -3.1428    4.8506   51.8466 H       1  ZINC001296589646    0.1000
     48 H48        -2.1711    2.6637   53.0142 H       1  ZINC001296589646    0.0800
     49 H49        -2.5872    1.9136   51.4545 H       1  ZINC001296589646    0.0700
     50 H50         1.0245    3.5327   51.7385 H       1  ZINC001296589646    0.0600
     51 H51        -0.0055    3.5017   53.1899 H       1  ZINC001296589646    0.0600
     52 H52         0.2330    2.0180   52.2360 H       1  ZINC001296589646    0.0600
     53 H53        -1.0246    4.8191   48.9970 H       1  ZINC001296589646    0.1200
     54 H54        -0.7231    3.9156   46.7264 H       1  ZINC001296589646    0.1200
     55 H55        -0.4333    1.4932   46.3935 H       1  ZINC001296589646    0.1200
     56 H56        -0.4442   -0.0258   48.3315 H       1  ZINC001296589646    0.1200
     57 H57        -0.7410    0.8781   50.6026 H       1  ZINC001296589646    0.1200
     58 H58        -4.6102    1.6406   50.2772 H       1  ZINC001296589646    0.1000
     59 H59        -4.8014    0.7033   51.7981 H       1  ZINC001296589646    0.1000
     60 H60        -6.5764    0.6701   49.2959 H       1  ZINC001296589646    0.0700
     61 H61        -5.9353   -0.7227   50.2188 H       1  ZINC001296589646    0.0900
     62 H62        -7.5470    1.2772   52.9569 H       1  ZINC001296589646    0.1000
     63 H63        -8.4224    2.0938   51.6334 H       1  ZINC001296589646    0.0800
@<TRIPOS>BOND
     1     1     2    1
     2     1    32    1
     3     1    33    1
     4     1    34    1
     5     2     3    1
     6     2    35    1
     7     2    36    1
     8     3     4    1
     9     4    31    1
    10     4     5    1
    11     4    28    1
    12     5    16    1
    13     5     6    2
    14     6     7    1
    15     7     8    2
    16     8     9    1
    17     8    16    1
    18     9    15    1
    19     9    10    1
    20    10    11    1
    21    10    37    1
    22    10    38    1
    23    11    12    1
    24    11    39    1
    25    11    40    1
    26    12    13    1
    27    12    14    1
    28    12    15    1
    29    14    41    1
    30    14    42    1
    31    14    43    1
    32    15    44    1
    33    15    45    1
    34    16    17    1
    35    17    18    1
    36    17    46    1
    37    17    47    1
    38    18    19    1
    39    18    48    1
    40    18    49    1
    41    19    20    1
    42    19    21    1
    43    19    22    1
    44    21    50    1
    45    21    51    1
    46    21    52    1
    47    22    27   ar
    48    22    23   ar
    49    23    24   ar
    50    23    53    1
    51    24    25   ar
    52    24    54    1
    53    25    26   ar
    54    25    55    1
    55    26    27   ar
    56    26    56    1
    57    27    57    1
    58    28    29    1
    59    28    58    1
    60    28    59    1
    61    29    30    1
    62    29    60    1
    63    29    61    1
    64    30    31    1
    65    31    62    1
    66    31    63    1
@<TRIPOS>SUBSTRUCTURE
     1 ZINC001296589646        1 TEMP              0 ****  ****    0 ROOT


##########                                Name:    ZINC001127302705
##########                DOCK_Rotatable_Bonds:                   9
##########                         Heavy_Atoms:                  28
##########                    Molecular_Weight:             398.892
##########                DOCK_Rotatable_Bonds:                   9
##########                       Formal_Charge:          -0.0200002
##########                     HBond_Acceptors:                   7
##########                        HBond_Donors:                   1
##########                         Heavy_Atoms:                  28
##########                          Grid_Score:          -32.393913
##########                     Grid_vdw_energy:          -32.506054
##########                      Grid_es_energy:            0.112143
##########           Internal_energy_repulsive:           25.945433

@<TRIPOS>MOLECULE
ZINC001127302705
 51 53 1 0 0
SMALL
USER_CHARGES


@<TRIPOS>ATOM
      1 C1         -0.0671    4.9055   49.6021 C.3     1  ZINC001127302705   -0.1500
      2 C2         -0.9509    3.8697   50.3001 C.3     1  ZINC001127302705   -0.1400
      3 C3         -0.6697    2.4835   49.7168 C.3     1  ZINC001127302705    0.1800
      4 C4          0.3603    1.7627   50.5888 C.3     1  ZINC001127302705   -0.1600
      5 C5         -1.9663    1.6719   49.6827 C.3     1  ZINC001127302705    0.0700
      6 O6         -2.7699    2.0103   50.8148 O.3     1  ZINC001127302705   -0.2800
      7 C7         -4.0170    1.4779   50.8662 C.ar    1  ZINC001127302705    0.3400
      8 N8         -4.2238    0.2500   50.4217 N.ar    1  ZINC001127302705   -0.5300
      9 C9         -5.4203   -0.3060   50.4536 C.ar    1  ZINC001127302705    0.1400
     10 C10        -6.5071    0.3810   50.9560 C.ar    1  ZINC001127302705   -0.2000
     11 C11        -6.3328    1.6730   51.4328 C.ar    1  ZINC001127302705   -0.0300
     12 C12        -5.0643    2.2266   51.3912 C.ar    1  ZINC001127302705   -0.1100
     13 Cl13       -4.7880    3.8384   51.9739 Cl      1  ZINC001127302705   -0.0400
     14 N14        -0.1452    2.6233   48.3560 N.am    1  ZINC001127302705   -0.7100
     15 C15         0.0532    1.5290   47.5945 C.2     1  ZINC001127302705    0.6200
     16 O16        -0.2045    0.4261   48.0364 O.2     1  ZINC001127302705   -0.5200
     17 C17         0.5836    1.6699   46.2233 C.2     1  ZINC001127302705   -0.0200
     18 N18         0.7920    0.6966   45.3590 N.2     1  ZINC001127302705   -0.2500
     19 N19         1.2597    1.1739   44.2618 N.pl3   1  ZINC001127302705   -0.2800
     20 C20         1.6070    0.3774   43.0824 C.3     1  ZINC001127302705    0.1600
     21 C21         3.0499   -0.0484   43.1711 C.ar    1  ZINC001127302705   -0.1200
     22 C22         3.6356   -0.2530   44.4063 C.ar    1  ZINC001127302705   -0.1000
     23 C23         4.9591   -0.6435   44.4875 C.ar    1  ZINC001127302705   -0.1200
     24 C24         5.6969   -0.8299   43.3335 C.ar    1  ZINC001127302705   -0.1100
     25 C25         5.1109   -0.6262   42.0981 C.ar    1  ZINC001127302705   -0.1200
     26 C26         3.7861   -0.2398   42.0168 C.ar    1  ZINC001127302705   -0.0800
     27 C27         1.3849    2.5154   44.3520 C.2     1  ZINC001127302705   -0.0200
     28 C28         0.9589    2.8759   45.5853 C.2     1  ZINC001127302705   -0.1800
     29 H29        -0.2859    4.9093   48.5342 H       1  ZINC001127302705    0.0500
     30 H30        -0.2674    5.8930   50.0176 H       1  ZINC001127302705    0.0600
     31 H31         0.9816    4.6520   49.7572 H       1  ZINC001127302705    0.0500
     32 H32        -0.7320    3.8658   51.3679 H       1  ZINC001127302705    0.0900
     33 H33        -1.9995    4.1233   50.1450 H       1  ZINC001127302705    0.0800
     34 H34        -0.0298    1.6586   51.6013 H       1  ZINC001127302705    0.0700
     35 H35         0.5607    0.7751   50.1733 H       1  ZINC001127302705    0.0500
     36 H36         1.2841    2.3408   50.6131 H       1  ZINC001127302705    0.0800
     37 H37        -2.5133    1.8994   48.7677 H       1  ZINC001127302705    0.0800
     38 H38        -1.7299    0.6083   49.7098 H       1  ZINC001127302705    0.0700
     39 H39        -5.5509   -1.3115   50.0814 H       1  ZINC001127302705    0.1700
     40 H40        -7.4827   -0.0817   50.9775 H       1  ZINC001127302705    0.1500
     41 H41        -7.1666    2.2321   51.8310 H       1  ZINC001127302705    0.1500
     42 H42         0.0592    3.5033   48.0031 H       1  ZINC001127302705    0.4100
     43 H43         0.9695   -0.5056   43.0396 H       1  ZINC001127302705    0.1000
     44 H44         1.4595    0.9760   42.1834 H       1  ZINC001127302705    0.1100
     45 H45         3.0592   -0.1075   45.3080 H       1  ZINC001127302705    0.1200
     46 H46         5.4169   -0.8027   45.4528 H       1  ZINC001127302705    0.1300
     47 H47         6.7311   -1.1343   43.3969 H       1  ZINC001127302705    0.1200
     48 H48         5.6874   -0.7713   41.1965 H       1  ZINC001127302705    0.1300
     49 H49         3.3284   -0.0806   41.0517 H       1  ZINC001127302705    0.1300
     50 H50         1.7518    3.1778   43.5820 H       1  ZINC001127302705    0.1800
     51 H51         0.9205    3.8731   45.9981 H       1  ZINC001127302705    0.1600
@<TRIPOS>BOND
     1     1     2    1
     2     1    29    1
     3     1    30    1
     4     1    31    1
     5     2     3    1
     6     2    32    1
     7     2    33    1
     8     3     4    1
     9     3     5    1
    10     3    14    1
    11     4    34    1
    12     4    35    1
    13     4    36    1
    14     5     6    1
    15     5    37    1
    16     5    38    1
    17     6     7    1
    18     7    12   ar
    19     7     8   ar
    20     8     9   ar
    21     9    10   ar
    22     9    39    1
    23    10    11   ar
    24    10    40    1
    25    11    12   ar
    26    11    41    1
    27    12    13    1
    28    14    15   am
    29    14    42    1
    30    15    16    2
    31    15    17    1
    32    17    28    1
    33    17    18    2
    34    18    19    1
    35    19    20    1
    36    19    27    1
    37    20    21    1
    38    20    43    1
    39    20    44    1
    40    21    26   ar
    41    21    22   ar
    42    22    23   ar
    43    22    45    1
    44    23    24   ar
    45    23    46    1
    46    24    25   ar
    47    24    47    1
    48    25    26   ar
    49    25    48    1
    50    26    49    1
    51    27    28    2
    52    27    50    1
    53    28    51    1
@<TRIPOS>SUBSTRUCTURE
     1 ZINC001127302705        1 TEMP              0 ****  ****    0 ROOT


##########                                Name:    ZINC000937331732
##########                DOCK_Rotatable_Bonds:                   6
##########                         Heavy_Atoms:                  24
##########                    Molecular_Weight:              333.35
##########                DOCK_Rotatable_Bonds:                   6
##########                       Formal_Charge:          -0.0299999
##########                     HBond_Acceptors:                  10
##########                        HBond_Donors:                   1
##########                         Heavy_Atoms:                  24
##########                          Grid_Score:          -32.369095
##########                     Grid_vdw_energy:          -30.405773
##########                      Grid_es_energy:           -1.963323
##########           Internal_energy_repulsive:           21.890816

@<TRIPOS>MOLECULE
ZINC000937331732
 43 45 1 0 0
SMALL
USER_CHARGES


@<TRIPOS>ATOM
      1 C1          0.5187    1.8113   49.7865 C.3     1  ZINC000937331732    0.0600
      2 N2         -0.5321    2.0460   48.7929 N.am    1  ZINC000937331732   -0.6100
      3 C3         -1.8194    1.7924   49.1010 C.2     1  ZINC000937331732    0.5000
      4 O4         -2.6895    1.9881   48.2791 O.2     1  ZINC000937331732   -0.5200
      5 C5         -2.1778    1.2659   50.4668 C.3     1  ZINC000937331732    0.1500
      6 N6         -3.6031    0.9292   50.5018 N.am    1  ZINC000937331732   -0.4400
      7 N7         -4.1611   -0.3430   50.3150 N.2     1  ZINC000937331732   -0.2800
      8 C8         -5.4467   -0.2381   50.4184 C.2     1  ZINC000937331732    0.2600
      9 N9         -5.7658    1.0739   50.6702 N.am    1  ZINC000937331732   -0.5600
     10 C10        -7.1176    1.6078   50.8537 C.3     1  ZINC000937331732    0.1000
     11 C11        -4.6220    1.7853   50.7256 C.2     1  ZINC000937331732    0.6500
     12 O12        -4.5262    2.9821   50.9319 O.2     1  ZINC000937331732   -0.5500
     13 C13        -0.1835    2.5562   47.4646 C.3     1  ZINC000937331732    0.1300
     14 H14        -0.5543    3.5728   47.3341 H       1  ZINC000937331732    0.1200
     15 C15         1.3506    2.4982   47.2395 C.3     1  ZINC000937331732   -0.1500
     16 C16         1.4347    2.3972   45.6959 C.3     1  ZINC000937331732    0.1000
     17 N17         0.2951    1.5449   45.3109 N.am    1  ZINC000937331732   -0.6000
     18 C18         0.2078    0.8126   44.1828 C.2     1  ZINC000937331732    0.6200
     19 O19        -0.7849    0.1442   43.9671 O.2     1  ZINC000937331732   -0.5400
     20 C20         1.3158    0.8217   43.2105 C.2     1  ZINC000937331732    0.1400
     21 N21         2.2355    1.7565   43.0984 N.2     1  ZINC000937331732   -0.4400
     22 C22         3.0714    1.4291   42.1157 C.2     1  ZINC000937331732   -0.0300
     23 C23         2.6677    0.2476   41.5877 C.2     1  ZINC000937331732   -0.0200
     24 N24         1.5678   -0.1419   42.2748 N.pl3   1  ZINC000937331732   -0.5200
     25 C25        -0.7343    1.6281   46.3615 C.3     1  ZINC000937331732    0.1000
     26 H26         0.8873    0.7900   49.6912 H       1  ZINC000937331732    0.0700
     27 H27         1.3385    2.5104   49.6203 H       1  ZINC000937331732    0.0800
     28 H28         0.1123    1.9592   50.7870 H       1  ZINC000937331732    0.0800
     29 H29        -1.5884    0.3737   50.6784 H       1  ZINC000937331732    0.1300
     30 H30        -1.9659    2.0277   51.2169 H       1  ZINC000937331732    0.1300
     31 H31        -6.1532   -1.0494   50.3221 H       1  ZINC000937331732    0.2300
     32 H32        -7.8432    0.8000   50.7595 H       1  ZINC000937331732    0.1000
     33 H33        -7.1997    2.0564   51.8438 H       1  ZINC000937331732    0.0800
     34 H34        -7.3157    2.3644   50.0945 H       1  ZINC000937331732    0.0800
     35 H35         1.8327    3.4076   47.5984 H       1  ZINC000937331732    0.0900
     36 H36         1.7819    1.6162   47.7129 H       1  ZINC000937331732    0.0800
     37 H37         1.3390    3.3851   45.2454 H       1  ZINC000937331732    0.0800
     38 H38         2.3741    1.9323   45.3969 H       1  ZINC000937331732    0.1100
     39 H39         3.9256    2.0064   41.7938 H       1  ZINC000937331732    0.1800
     40 H40         3.1374   -0.2849   40.7741 H       1  ZINC000937331732    0.1900
     41 H41         1.0523   -0.9501   42.1268 H       1  ZINC000937331732    0.4300
     42 H42        -0.9237    0.6372   46.7742 H       1  ZINC000937331732    0.0800
     43 H43        -1.6540    2.0415   45.9474 H       1  ZINC000937331732    0.0800
@<TRIPOS>BOND
     1     1     2    1
     2     1    26    1
     3     1    27    1
     4     1    28    1
     5     2     3   am
     6     2    13    1
     7     3     4    2
     8     3     5    1
     9     5     6    1
    10     5    29    1
    11     5    30    1
    12     6    11   am
    13     6     7    1
    14     7     8    2
    15     8     9    1
    16     8    31    1
    17     9    10    1
    18     9    11   am
    19    10    32    1
    20    10    33    1
    21    10    34    1
    22    11    12    2
    23    13    14    1
    24    13    25    1
    25    13    15    1
    26    15    16    1
    27    15    35    1
    28    15    36    1
    29    16    17    1
    30    16    37    1
    31    16    38    1
    32    17    18   am
    33    17    25    1
    34    18    19    2
    35    18    20    1
    36    20    24    1
    37    20    21    2
    38    21    22    1
    39    22    23    2
    40    22    39    1
    41    23    24    1
    42    23    40    1
    43    24    41    1
    44    25    42    1
    45    25    43    1
@<TRIPOS>SUBSTRUCTURE
     1 ZINC000937331732        1 TEMP              0 ****  ****    0 ROOT


##########                                Name:    ZINC000432833246
##########                DOCK_Rotatable_Bonds:                   5
##########                         Heavy_Atoms:                  25
##########                    Molecular_Weight:             400.318
##########                DOCK_Rotatable_Bonds:                   5
##########                       Formal_Charge:        -3.20375e-07
##########                     HBond_Acceptors:                   4
##########                        HBond_Donors:                   1
##########                         Heavy_Atoms:                  25
##########                          Grid_Score:          -32.360455
##########                     Grid_vdw_energy:          -31.805298
##########                      Grid_es_energy:           -0.555158
##########           Internal_energy_repulsive:            6.395588

@<TRIPOS>MOLECULE
ZINC000432833246
 47 51 1 0 0
SMALL
USER_CHARGES


@<TRIPOS>ATOM
      1 O1         -8.7454    0.4741   51.8602 O.2     1  ZINC000432833246   -0.5200
      2 C2         -7.6555    0.9798   51.6948 C.2     1  ZINC000432833246    0.5200
      3 C3         -6.5626    0.4148   50.8145 C.3     1  ZINC000432833246   -0.1500
      4 C4         -5.5879    1.5982   50.6132 C.3     1  ZINC000432833246   -0.1100
      5 H5         -5.8254    2.1485   49.7028 H       1  ZINC000432833246    0.1000
      6 C6         -4.1364    1.1150   50.5949 C.3     1  ZINC000432833246    0.1300
      7 N7         -3.2382    2.2698   50.5177 N.pl3   1  ZINC000432833246   -0.7200
      8 C8         -1.8937    2.0845   50.2334 C.ar    1  ZINC000432833246    0.2800
      9 C9         -0.8909    2.5171   51.1335 C.ar    1  ZINC000432833246   -0.1500
     10 C10        -1.2181    3.1464   52.3427 C.ar    1  ZINC000432833246   -0.0700
     11 C11        -0.2243    3.5485   53.1837 C.ar    1  ZINC000432833246   -0.1300
     12 C12         1.1138    3.3426   52.8573 C.ar    1  ZINC000432833246   -0.0600
     13 C13         1.4662    2.7342   51.6907 C.ar    1  ZINC000432833246   -0.0800
     14 Br14        3.2911    2.4669   51.2732 Br      1  ZINC000432833246   -0.0300
     15 C15         0.4675    2.3053   50.7982 C.ar    1  ZINC000432833246    0.1900
     16 N16         0.7853    1.7047   49.6458 N.ar    1  ZINC000432833246   -0.5000
     17 C17        -0.1358    1.2987   48.8031 C.ar    1  ZINC000432833246    0.2400
     18 C18         0.2883    0.6287   47.5216 C.3     1  ZINC000432833246   -0.1100
     19 C19        -0.3091    1.1581   46.2163 C.3     1  ZINC000432833246   -0.1700
     20 C20         1.1565    1.4373   46.5555 C.3     1  ZINC000432833246   -0.1600
     21 C21        -1.4894    1.4647   49.0613 C.ar    1  ZINC000432833246   -0.2700
     22 C22        -5.8703    2.4555   51.8669 C.3     1  ZINC000432833246    0.1100
     23 N23        -7.2449    2.1270   52.2626 N.am    1  ZINC000432833246   -0.5900
     24 C24        -8.0614    2.9401   53.1672 C.3     1  ZINC000432833246    0.0800
     25 C25        -8.8463    2.2101   54.2590 C.3     1  ZINC000432833246   -0.1900
     26 C26        -7.6137    3.0385   54.6269 C.3     1  ZINC000432833246   -0.1900
     27 H27        -6.0596   -0.4129   51.3145 H       1  ZINC000432833246    0.1100
     28 H28        -6.9726    0.0913   49.8577 H       1  ZINC000432833246    0.1000
     29 H29        -3.9289    0.5535   51.5058 H       1  ZINC000432833246    0.0800
     30 H30        -3.9781    0.4730   49.7283 H       1  ZINC000432833246    0.0700
     31 H31        -3.5840    3.1639   50.6653 H       1  ZINC000432833246    0.4000
     32 H32        -2.2523    3.3121   52.6061 H       1  ZINC000432833246    0.1300
     33 H33        -0.4775    4.0333   54.1150 H       1  ZINC000432833246    0.1400
     34 H34         1.8839    3.6706   53.5396 H       1  ZINC000432833246    0.1400
     35 H35         0.4767   -0.4426   47.5912 H       1  ZINC000432833246    0.1300
     36 H36        -0.5141    0.4349   45.4269 H       1  ZINC000432833246    0.1000
     37 H37        -1.0089    1.9910   46.2845 H       1  ZINC000432833246    0.1000
     38 H38         1.4208    2.4538   46.8467 H       1  ZINC000432833246    0.0900
     39 H39         1.9157    0.8978   45.9891 H       1  ZINC000432833246    0.1000
     40 H40        -2.2239    1.1198   48.3488 H       1  ZINC000432833246    0.1400
     41 H41        -5.1727    2.1989   52.6642 H       1  ZINC000432833246    0.0800
     42 H42        -5.7935    3.5153   51.6241 H       1  ZINC000432833246    0.0900
     43 H43        -8.5206    3.8222   52.7212 H       1  ZINC000432833246    0.1300
     44 H44        -9.8223    2.6118   54.5313 H       1  ZINC000432833246    0.1000
     45 H45        -8.7552    1.1249   54.3042 H       1  ZINC000432833246    0.1300
     46 H46        -6.7117    2.4981   54.9142 H       1  ZINC000432833246    0.0900
     47 H47        -7.7788    3.9852   55.1413 H       1  ZINC000432833246    0.1000
@<TRIPOS>BOND
     1     1     2    2
     2     2    23   am
     3     2     3    1
     4     3     4    1
     5     3    27    1
     6     3    28    1
     7     4     5    1
     8     4     6    1
     9     4    22    1
    10     6     7    1
    11     6    29    1
    12     6    30    1
    13     7     8    1
    14     7    31    1
    15     8    21   ar
    16     8     9   ar
    17     9    15   ar
    18     9    10   ar
    19    10    11   ar
    20    10    32    1
    21    11    12   ar
    22    11    33    1
    23    12    13   ar
    24    12    34    1
    25    13    14    1
    26    13    15   ar
    27    15    16   ar
    28    16    17   ar
    29    17    18    1
    30    17    21   ar
    31    18    20    1
    32    18    19    1
    33    18    35    1
    34    19    20    1
    35    19    36    1
    36    19    37    1
    37    20    38    1
    38    20    39    1
    39    21    40    1
    40    22    23    1
    41    22    41    1
    42    22    42    1
    43    23    24    1
    44    24    26    1
    45    24    25    1
    46    24    43    1
    47    25    26    1
    48    25    44    1
    49    25    45    1
    50    26    46    1
    51    26    47    1
@<TRIPOS>SUBSTRUCTURE
     1 ZINC000432833246        1 TEMP              0 ****  ****    0 ROOT


##########                                Name:    ZINC000460972051
##########                DOCK_Rotatable_Bonds:                  10
##########                         Heavy_Atoms:                  29
##########                    Molecular_Weight:             417.572
##########                DOCK_Rotatable_Bonds:                  10
##########                       Formal_Charge:         3.31551e-07
##########                     HBond_Acceptors:                   7
##########                        HBond_Donors:                   2
##########                         Heavy_Atoms:                  29
##########                          Grid_Score:          -32.353836
##########                     Grid_vdw_energy:          -33.420280
##########                      Grid_es_energy:            1.066445
##########           Internal_energy_repulsive:           34.985619

@<TRIPOS>MOLECULE
ZINC000460972051
 60 61 1 0 0
SMALL
USER_CHARGES


@<TRIPOS>ATOM
      1 C1          0.0325    3.9561   44.0199 C.3     1  ZINC000460972051   -0.1800
      2 C2         -0.6074    2.7471   44.7053 C.3     1  ZINC000460972051    0.1000
      3 N3          0.3367    2.1760   45.6692 N.am    1  ZINC000460972051   -0.6200
      4 C4          0.2872    2.5494   46.9632 C.2     1  ZINC000460972051    0.7100
      5 O5         -0.5401    3.3614   47.3304 O.2     1  ZINC000460972051   -0.5800
      6 N6          1.1546    2.0228   47.8502 N.am    1  ZINC000460972051   -0.7400
      7 C7          1.0997    2.4274   49.2572 C.3     1  ZINC000460972051    0.2000
      8 H8          0.9922    3.5103   49.3199 H       1  ZINC000460972051    0.1100
      9 C9         -0.0966    1.7560   49.9346 C.3     1  ZINC000460972051    0.1100
     10 N10        -0.2201    2.2496   51.3085 N.am    1  ZINC000460972051   -1.1200
     11 S11        -1.4275    3.3127   51.7010 S.o2    1  ZINC000460972051    2.7000
     12 O12        -1.3741    3.4778   53.1113 O.2     1  ZINC000460972051   -0.9500
     13 O13        -1.3212    4.3958   50.7872 O.2     1  ZINC000460972051   -0.9600
     14 C14        -2.9591    2.5151   51.3509 C.ar    1  ZINC000460972051   -0.6900
     15 C15        -2.9695    1.2188   50.8717 C.ar    1  ZINC000460972051   -0.0100
     16 C16        -4.1713    0.5929   50.5970 C.ar    1  ZINC000460972051   -0.1500
     17 C17        -5.3624    1.2634   50.8021 C.ar    1  ZINC000460972051   -0.0200
     18 C18        -6.6724    0.5814   50.5022 C.3     1  ZINC000460972051   -0.1300
     19 C19        -5.3521    2.5597   51.2828 C.ar    1  ZINC000460972051   -0.1500
     20 C20        -4.1507    3.1840   51.5609 C.ar    1  ZINC000460972051    0.0300
     21 C21        -4.1394    4.5970   52.0849 C.3     1  ZINC000460972051   -0.1700
     22 C22         2.3703    2.0078   49.9505 C.ar    1  ZINC000460972051   -0.1000
     23 C23         2.7659    0.6835   49.9261 C.ar    1  ZINC000460972051   -0.1000
     24 C24         3.9314    0.2986   50.5621 C.ar    1  ZINC000460972051   -0.1200
     25 C25         4.7014    1.2380   51.2220 C.ar    1  ZINC000460972051   -0.1200
     26 C26         4.3062    2.5625   51.2455 C.ar    1  ZINC000460972051   -0.1200
     27 C27         3.1429    2.9481   50.6059 C.ar    1  ZINC000460972051   -0.1000
     28 C28         1.3345    1.1991   45.2263 C.3     1  ZINC000460972051    0.1500
     29 C29         0.8959    0.5908   43.8927 C.3     1  ZINC000460972051   -0.1600
     30 C30         2.6859    1.8945   45.0498 C.3     1  ZINC000460972051   -0.1600
     31 H31        -0.6699    4.3811   43.3029 H       1  ZINC000460972051    0.0700
     32 H32         0.2856    4.7065   44.7689 H       1  ZINC000460972051    0.0600
     33 H33         0.9374    3.6422   43.4999 H       1  ZINC000460972051    0.0700
     34 H34        -1.5124    3.0610   45.2255 H       1  ZINC000460972051    0.0700
     35 H35        -0.8605    1.9967   43.9564 H       1  ZINC000460972051    0.0900
     36 H36         1.8153    1.3760   47.5569 H       1  ZINC000460972051    0.4000
     37 H37        -1.0061    1.9903   49.3813 H       1  ZINC000460972051    0.0900
     38 H38         0.0525    0.6764   49.9484 H       1  ZINC000460972051    0.0900
     39 H39         0.4054    1.9535   51.9882 H       1  ZINC000460972051    0.4200
     40 H40        -2.0388    0.6948   50.7114 H       1  ZINC000460972051    0.1400
     41 H41        -4.1794   -0.4198   50.2218 H       1  ZINC000460972051    0.1300
     42 H42        -7.0230    0.0605   51.3932 H       1  ZINC000460972051    0.0800
     43 H43        -7.4096    1.3264   50.2030 H       1  ZINC000460972051    0.0700
     44 H44        -6.5318   -0.1357   49.6936 H       1  ZINC000460972051    0.0700
     45 H45        -6.2827    3.0835   51.4434 H       1  ZINC000460972051    0.1300
     46 H46        -4.0650    4.5806   53.1722 H       1  ZINC000460972051    0.0900
     47 H47        -3.2849    5.1315   51.6701 H       1  ZINC000460972051    0.1000
     48 H48        -5.0604    5.1007   51.7914 H       1  ZINC000460972051    0.0900
     49 H49         2.1644   -0.0504   49.4106 H       1  ZINC000460972051    0.1200
     50 H50         4.2402   -0.7361   50.5437 H       1  ZINC000460972051    0.1200
     51 H51         5.6116    0.9372   51.7195 H       1  ZINC000460972051    0.1200
     52 H52         4.9076    3.2964   51.7614 H       1  ZINC000460972051    0.1200
     53 H53         2.8342    3.9829   50.6244 H       1  ZINC000460972051    0.1200
     54 H54         1.4267    0.4101   45.9727 H       1  ZINC000460972051    0.1000
     55 H55        -0.0668    0.0954   44.0184 H       1  ZINC000460972051    0.0600
     56 H56         0.8037    1.3798   43.1463 H       1  ZINC000460972051    0.0600
     57 H57         1.6384   -0.1360   43.5632 H       1  ZINC000460972051    0.0700
     58 H58         2.9983    2.3279   45.9998 H       1  ZINC000460972051    0.0600
     59 H59         3.4283    1.1677   44.7203 H       1  ZINC000460972051    0.0700
     60 H60         2.5937    2.6835   44.3034 H       1  ZINC000460972051    0.0600
@<TRIPOS>BOND
     1     1     2    1
     2     1    31    1
     3     1    32    1
     4     1    33    1
     5     2     3    1
     6     2    34    1
     7     2    35    1
     8     3     4   am
     9     3    28    1
    10     4     5    2
    11     4     6   am
    12     6     7    1
    13     6    36    1
    14     7     8    1
    15     7     9    1
    16     7    22    1
    17     9    10    1
    18     9    37    1
    19     9    38    1
    20    10    11   am
    21    10    39    1
    22    11    12    2
    23    11    13    2
    24    11    14    1
    25    14    20   ar
    26    14    15   ar
    27    15    16   ar
    28    15    40    1
    29    16    17   ar
    30    16    41    1
    31    17    18    1
    32    17    19   ar
    33    18    42    1
    34    18    43    1
    35    18    44    1
    36    19    20   ar
    37    19    45    1
    38    20    21    1
    39    21    46    1
    40    21    47    1
    41    21    48    1
    42    22    27   ar
    43    22    23   ar
    44    23    24   ar
    45    23    49    1
    46    24    25   ar
    47    24    50    1
    48    25    26   ar
    49    25    51    1
    50    26    27   ar
    51    26    52    1
    52    27    53    1
    53    28    29    1
    54    28    30    1
    55    28    54    1
    56    29    55    1
    57    29    56    1
    58    29    57    1
    59    30    58    1
    60    30    59    1
    61    30    60    1
@<TRIPOS>SUBSTRUCTURE
     1 ZINC000460972051        1 TEMP              0 ****  ****    0 ROOT


##########                                Name:    ZINC000417533280
##########                DOCK_Rotatable_Bonds:                   9
##########                         Heavy_Atoms:                  26
##########                    Molecular_Weight:             367.439
##########                DOCK_Rotatable_Bonds:                   9
##########                       Formal_Charge:         -0.00999999
##########                     HBond_Acceptors:                   7
##########                        HBond_Donors:                   2
##########                         Heavy_Atoms:                  26
##########                          Grid_Score:          -32.300659
##########                     Grid_vdw_energy:          -30.267069
##########                      Grid_es_energy:           -2.033591
##########           Internal_energy_repulsive:           15.358192

@<TRIPOS>MOLECULE
ZINC000417533280
 53 54 1 0 0
SMALL
USER_CHARGES


@<TRIPOS>ATOM
      1 C1         -7.2854    7.6185   46.9622 C.3     1  ZINC000417533280   -0.1600
      2 C2         -7.7384    6.8572   48.2096 C.3     1  ZINC000417533280   -0.1200
      3 C3         -9.2664    6.7850   48.2363 C.3     1  ZINC000417533280   -0.1200
      4 C4         -9.7214    6.0796   49.5155 C.3     1  ZINC000417533280   -0.1300
      5 C5         -9.7149    4.5659   49.2930 C.3     1  ZINC000417533280    0.1200
      6 N6         -8.4327    4.0127   49.7358 N.am    1  ZINC000417533280   -0.7300
      7 C7         -8.3107    3.5053   50.9783 C.2     1  ZINC000417533280    0.5200
      8 O8         -9.2629    3.5054   51.7296 O.2     1  ZINC000417533280   -0.5400
      9 C9         -6.9911    2.9379   51.4344 C.3     1  ZINC000417533280   -0.1100
     10 C10        -6.7965    1.5473   50.8257 C.3     1  ZINC000417533280   -0.1300
     11 C11        -5.4706    0.9594   51.3189 C.3     1  ZINC000417533280    0.1300
     12 N12        -4.3906    1.9079   51.0145 N.am    1  ZINC000417533280   -0.6200
     13 C13        -3.3024    1.5112   50.3252 C.2     1  ZINC000417533280    0.7100
     14 O14        -3.2078    0.3589   49.9490 O.2     1  ZINC000417533280   -0.5600
     15 N15        -2.3192    2.3919   50.0530 N.am    1  ZINC000417533280   -0.6800
     16 C16        -1.1884    1.9798   49.3368 C.ar    1  ZINC000417533280    0.1900
     17 C17        -1.2993    1.6498   47.9930 C.ar    1  ZINC000417533280   -0.1100
     18 C18        -0.1831    1.2438   47.2869 C.ar    1  ZINC000417533280   -0.1100
     19 C19         1.0459    1.1654   47.9180 C.ar    1  ZINC000417533280    0.0500
     20 F20         2.1360    0.7685   47.2255 F       1  ZINC000417533280   -0.1300
     21 C21         1.1600    1.4945   49.2606 C.ar    1  ZINC000417533280    0.0900
     22 F22         2.3605    1.4176   49.8753 F       1  ZINC000417533280   -0.1200
     23 C23         0.0458    1.9063   49.9686 C.ar    1  ZINC000417533280   -0.1300
     24 C24         0.1689    2.2646   51.4273 C.3     1  ZINC000417533280   -0.1200
     25 C25        -4.5195    3.2970   51.4754 C.3     1  ZINC000417533280    0.1100
     26 C26        -5.8561    3.8586   50.9805 C.3     1  ZINC000417533280   -0.1200
     27 H27        -7.6403    7.1003   46.0713 H       1  ZINC000417533280    0.0500
     28 H28        -7.6965    8.6278   46.9833 H       1  ZINC000417533280    0.0500
     29 H29        -6.1968    7.6700   46.9432 H       1  ZINC000417533280    0.0500
     30 H30        -7.3273    5.8479   48.1885 H       1  ZINC000417533280    0.0600
     31 H31        -7.3834    7.3754   49.1005 H       1  ZINC000417533280    0.0600
     32 H32        -9.6782    7.7939   48.2116 H       1  ZINC000417533280    0.0700
     33 H33        -9.6190    6.2272   47.3688 H       1  ZINC000417533280    0.0700
     34 H34        -9.0416    6.3301   50.3299 H       1  ZINC000417533280    0.0700
     35 H35       -10.7299    6.4051   49.7708 H       1  ZINC000417533280    0.0700
     36 H36       -10.5238    4.1111   49.8650 H       1  ZINC000417533280    0.0700
     37 H37        -9.8556    4.3539   48.2331 H       1  ZINC000417533280    0.0700
     38 H38        -7.6715    4.0115   49.1346 H       1  ZINC000417533280    0.4000
     39 H39        -6.9847    2.8623   52.5217 H       1  ZINC000417533280    0.1000
     40 H40        -7.6178    0.8987   51.1305 H       1  ZINC000417533280    0.0800
     41 H41        -6.7781    1.6252   49.7387 H       1  ZINC000417533280    0.0800
     42 H42        -5.5212    0.7963   52.3954 H       1  ZINC000417533280    0.0700
     43 H43        -5.2796    0.0133   50.8125 H       1  ZINC000417533280    0.1000
     44 H44        -2.3947    3.3112   50.3531 H       1  ZINC000417533280    0.4100
     45 H45        -2.2581    1.7101   47.4995 H       1  ZINC000417533280    0.1700
     46 H46        -0.2701    0.9868   46.2415 H       1  ZINC000417533280    0.1500
     47 H47         0.3963    3.3263   51.5228 H       1  ZINC000417533280    0.0800
     48 H48        -0.7706    2.0471   51.9354 H       1  ZINC000417533280    0.0700
     49 H49         0.9700    1.6793   51.8787 H       1  ZINC000417533280    0.0800
     50 H50        -4.4924    3.3246   52.5647 H       1  ZINC000417533280    0.0800
     51 H51        -3.7008    3.8932   51.0723 H       1  ZINC000417533280    0.0800
     52 H52        -5.8464    3.9149   49.8920 H       1  ZINC000417533280    0.0800
     53 H53        -6.0079    4.8550   51.3954 H       1  ZINC000417533280    0.0900
@<TRIPOS>BOND
     1     1     2    1
     2     1    27    1
     3     1    28    1
     4     1    29    1
     5     2     3    1
     6     2    30    1
     7     2    31    1
     8     3     4    1
     9     3    32    1
    10     3    33    1
    11     4     5    1
    12     4    34    1
    13     4    35    1
    14     5     6    1
    15     5    36    1
    16     5    37    1
    17     6     7   am
    18     6    38    1
    19     7     8    2
    20     7     9    1
    21     9    26    1
    22     9    10    1
    23     9    39    1
    24    10    11    1
    25    10    40    1
    26    10    41    1
    27    11    12    1
    28    11    42    1
    29    11    43    1
    30    12    13   am
    31    12    25    1
    32    13    14    2
    33    13    15   am
    34    15    16    1
    35    15    44    1
    36    16    23   ar
    37    16    17   ar
    38    17    18   ar
    39    17    45    1
    40    18    19   ar
    41    18    46    1
    42    19    20    1
    43    19    21   ar
    44    21    22    1
    45    21    23   ar
    46    23    24    1
    47    24    47    1
    48    24    48    1
    49    24    49    1
    50    25    26    1
    51    25    50    1
    52    25    51    1
    53    26    52    1
    54    26    53    1
@<TRIPOS>SUBSTRUCTURE
     1 ZINC000417533280        1 TEMP              0 ****  ****    0 ROOT


##########                                Name:    ZINC000623581528
##########                DOCK_Rotatable_Bonds:                   5
##########                         Heavy_Atoms:                  26
##########                    Molecular_Weight:             355.369
##########                DOCK_Rotatable_Bonds:                   5
##########                       Formal_Charge:        -4.47035e-07
##########                     HBond_Acceptors:                   7
##########                        HBond_Donors:                   2
##########                         Heavy_Atoms:                  26
##########                          Grid_Score:          -32.292812
##########                     Grid_vdw_energy:          -31.244621
##########                      Grid_es_energy:           -1.048192
##########           Internal_energy_repulsive:            4.291992

@<TRIPOS>MOLECULE
ZINC000623581528
 44 47 1 0 0
SMALL
USER_CHARGES


@<TRIPOS>ATOM
      1 C1         -2.2201    3.0668   51.4797 C.3     1  ZINC000623581528    0.1000
      2 N2         -3.1465    2.0375   51.0016 N.am    1  ZINC000623581528   -0.5500
      3 C3         -2.8709    1.0734   50.1009 C.2     1  ZINC000623581528    0.6300
      4 O4         -1.8000    0.9154   49.5471 O.2     1  ZINC000623581528   -0.4800
      5 O5         -3.9617    0.3148   49.9101 O.3     1  ZINC000623581528   -0.2300
      6 C6         -4.9688    0.7787   50.6898 C.ar    1  ZINC000623581528    0.0400
      7 C7         -6.2810    0.3751   50.8781 C.ar    1  ZINC000623581528   -0.0800
      8 C8         -7.0925    1.0600   51.7619 C.ar    1  ZINC000623581528   -0.0900
      9 C9         -6.6016    2.1487   52.4607 C.ar    1  ZINC000623581528   -0.0900
     10 C10        -7.4948    2.8892   53.4225 C.3     1  ZINC000623581528    0.1800
     11 N11        -7.1683    2.4943   54.7949 N.am    1  ZINC000623581528   -0.7400
     12 C12        -8.1543    2.3026   55.6936 C.2     1  ZINC000623581528    0.7100
     13 O13        -9.3146    2.4588   55.3657 O.2     1  ZINC000623581528   -0.5800
     14 N14        -7.8539    1.9377   56.9557 N.am    1  ZINC000623581528   -0.7300
     15 C15        -8.9258    1.7275   57.9322 C.3     1  ZINC000623581528    0.2000
     16 H16        -9.7771    2.3681   57.7020 H       1  ZINC000623581528    0.1000
     17 C17        -8.4127    2.0112   59.3600 C.3     1  ZINC000623581528   -0.1300
     18 C18        -7.9536    0.6148   59.8306 C.3     1  ZINC000623581528   -0.0800
     19 C19        -8.7889   -0.3658   59.0355 C.ar    1  ZINC000623581528   -0.1000
     20 C20        -9.0397   -1.7106   59.2501 C.ar    1  ZINC000623581528   -0.0800
     21 C21        -9.8463   -2.4156   58.3785 C.ar    1  ZINC000623581528   -0.1400
     22 C22       -10.4063   -1.7762   57.2858 C.ar    1  ZINC000623581528    0.0900
     23 F23       -11.1962   -2.4628   56.4315 F       1  ZINC000623581528   -0.1400
     24 C24       -10.1558   -0.4325   57.0703 C.ar    1  ZINC000623581528   -0.1200
     25 C25        -9.3494    0.2744   57.9424 C.ar    1  ZINC000623581528   -0.0900
     26 C26        -5.2946    2.5586   52.2795 C.ar    1  ZINC000623581528   -0.0800
     27 C27        -4.4728    1.8725   51.3996 C.ar    1  ZINC000623581528    0.0700
     28 H28        -1.6855    2.6965   52.3545 H       1  ZINC000623581528    0.0800
     29 H29        -1.5057    3.3070   50.6922 H       1  ZINC000623581528    0.0900
     30 H30        -2.7797    3.9629   51.7483 H       1  ZINC000623581528    0.0900
     31 H31        -6.6688   -0.4736   50.3345 H       1  ZINC000623581528    0.1500
     32 H32        -8.1150    0.7444   51.9078 H       1  ZINC000623581528    0.1500
     33 H33        -7.3424    3.9623   53.3071 H       1  ZINC000623581528    0.0800
     34 H34        -8.5363    2.6454   53.2122 H       1  ZINC000623581528    0.0800
     35 H35        -6.2425    2.3708   55.0568 H       1  ZINC000623581528    0.4000
     36 H36        -6.9282    1.8142   57.2178 H       1  ZINC000623581528    0.4000
     37 H37        -7.5747    2.7079   59.3392 H       1  ZINC000623581528    0.0900
     38 H38        -9.2161    2.3885   59.9925 H       1  ZINC000623581528    0.0900
     39 H39        -6.8948    0.4719   59.6145 H       1  ZINC000623581528    0.0800
     40 H40        -8.1423    0.4943   60.8974 H       1  ZINC000623581528    0.0800
     41 H41        -8.6032   -2.2100   60.1024 H       1  ZINC000623581528    0.1300
     42 H42       -10.0398   -3.4643   58.5490 H       1  ZINC000623581528    0.1400
     43 H43       -10.5924    0.0666   56.2179 H       1  ZINC000623581528    0.1400
     44 H44        -4.9131    3.4085   52.8258 H       1  ZINC000623581528    0.1400
@<TRIPOS>BOND
     1     1     2    1
     2     1    28    1
     3     1    29    1
     4     1    30    1
     5     2    27    1
     6     2     3   am
     7     3     4    2
     8     3     5    1
     9     5     6    1
    10     6    27   ar
    11     6     7   ar
    12     7     8   ar
    13     7    31    1
    14     8     9   ar
    15     8    32    1
    16     9    10    1
    17     9    26   ar
    18    10    11    1
    19    10    33    1
    20    10    34    1
    21    11    12   am
    22    11    35    1
    23    12    13    2
    24    12    14   am
    25    14    15    1
    26    14    36    1
    27    15    16    1
    28    15    25    1
    29    15    17    1
    30    17    18    1
    31    17    37    1
    32    17    38    1
    33    18    19    1
    34    18    39    1
    35    18    40    1
    36    19    25   ar
    37    19    20   ar
    38    20    21   ar
    39    20    41    1
    40    21    22   ar
    41    21    42    1
    42    22    23    1
    43    22    24   ar
    44    24    25   ar
    45    24    43    1
    46    26    27   ar
    47    26    44    1
@<TRIPOS>SUBSTRUCTURE
     1 ZINC000623581528        1 TEMP              0 ****  ****    0 ROOT


##########                                Name:    ZINC000989658617
##########                DOCK_Rotatable_Bonds:                   6
##########                         Heavy_Atoms:                  24
##########                    Molecular_Weight:             334.418
##########                DOCK_Rotatable_Bonds:                   6
##########                       Formal_Charge:          -0.0100001
##########                     HBond_Acceptors:                   7
##########                        HBond_Donors:                   2
##########                         Heavy_Atoms:                  24
##########                          Grid_Score:          -32.291824
##########                     Grid_vdw_energy:          -31.726938
##########                      Grid_es_energy:           -0.564886
##########           Internal_energy_repulsive:            8.808382

@<TRIPOS>MOLECULE
ZINC000989658617
 50 52 1 0 0
SMALL
USER_CHARGES


@<TRIPOS>ATOM
      1 C1        -11.9002    0.7198   52.5359 C.3     1  ZINC000989658617    0.0300
      2 O2        -10.8112    1.6330   52.3865 O.3     1  ZINC000989658617   -0.3700
      3 C3         -9.5268    1.0071   52.3638 C.3     1  ZINC000989658617    0.0500
      4 C4         -8.4589    2.0577   52.1992 C.2     1  ZINC000989658617    0.5300
      5 O5         -8.6324    3.1732   52.6423 O.2     1  ZINC000989658617   -0.5100
      6 N6         -7.3113    1.7575   51.5596 N.am    1  ZINC000989658617   -0.6200
      7 C7         -6.9708    0.4478   50.9748 C.3     1  ZINC000989658617    0.1000
      8 C8         -5.4223    0.4202   50.9383 C.3     1  ZINC000989658617   -0.1500
      9 C9         -5.0928    1.8946   50.5849 C.3     1  ZINC000989658617    0.1400
     10 H10        -5.1618    2.0581   49.5095 H       1  ZINC000989658617    0.1100
     11 N11        -3.7631    2.2611   51.0786 N.am    1  ZINC000989658617   -0.7100
     12 C12        -2.6615    1.7899   50.4614 C.2     1  ZINC000989658617    0.6100
     13 O13        -2.7713    1.0595   49.4958 O.2     1  ZINC000989658617   -0.5200
     14 C14        -1.3209    2.1610   50.9581 C.2     1  ZINC000989658617   -0.0100
     15 N15        -1.0397    2.7497   52.1081 N.2     1  ZINC000989658617   -0.2600
     16 N16         0.2320    2.9243   52.2181 N.pl3   1  ZINC000989658617   -0.3700
     17 C17         0.8577    2.4499   51.1284 C.2     1  ZINC000989658617    0.0100
     18 C18        -0.0957    1.9516   50.3033 C.2     1  ZINC000989658617   -0.1400
     19 C19         0.1764    1.3248   48.9636 C.3     1  ZINC000989658617   -0.0400
     20 C20         1.5976    1.7104   48.5313 C.3     1  ZINC000989658617   -0.0900
     21 H21         1.6253    2.7702   48.2780 H       1  ZINC000989658617    0.0700
     22 C22         2.0007    0.8834   47.3088 C.3     1  ZINC000989658617   -0.1500
     23 C23         2.5736    1.4342   49.6781 C.3     1  ZINC000989658617   -0.1100
     24 C24         2.3320    2.4322   50.8161 C.3     1  ZINC000989658617   -0.0500
     25 C25        -6.1941    2.6838   51.3238 C.3     1  ZINC000989658617    0.1300
     26 H26        -5.8129    3.0473   52.2781 H       1  ZINC000989658617    0.0800
     27 C27        -6.6548    3.8629   50.4645 C.3     1  ZINC000989658617   -0.1600
     28 H28       -11.9004    0.0153   51.7042 H       1  ZINC000989658617    0.0500
     29 H29       -11.7914    0.1748   53.4736 H       1  ZINC000989658617    0.0400
     30 H30       -12.8396    1.2727   52.5440 H       1  ZINC000989658617    0.0900
     31 H31        -9.3675    0.4706   53.2991 H       1  ZINC000989658617    0.0800
     32 H32        -9.4787    0.3065   51.5302 H       1  ZINC000989658617    0.0800
     33 H33        -7.3499   -0.3584   51.6030 H       1  ZINC000989658617    0.0800
     34 H34        -7.3754    0.3659   49.9660 H       1  ZINC000989658617    0.0800
     35 H35        -5.0134    0.1511   51.9123 H       1  ZINC000989658617    0.0800
     36 H36        -5.0617   -0.2572   50.1642 H       1  ZINC000989658617    0.1000
     37 H37        -3.6755    2.8430   51.8498 H       1  ZINC000989658617    0.4100
     38 H38         0.6730    3.3378   52.9767 H       1  ZINC000989658617    0.4500
     39 H39         0.0977    0.2405   49.0425 H       1  ZINC000989658617    0.0800
     40 H40        -0.5429    1.6937   48.2324 H       1  ZINC000989658617    0.0800
     41 H41         1.3064    1.0803   46.4919 H       1  ZINC000989658617    0.0600
     42 H42         3.0101    1.1571   47.0016 H       1  ZINC000989658617    0.0600
     43 H43         1.9728   -0.1765   47.5618 H       1  ZINC000989658617    0.0600
     44 H44         2.4198    0.4211   50.0494 H       1  ZINC000989658617    0.0700
     45 H45         3.5968    1.5360   49.3163 H       1  ZINC000989658617    0.0800
     46 H46         2.6485    3.4277   50.5049 H       1  ZINC000989658617    0.0800
     47 H47         2.8945    2.1265   51.6982 H       1  ZINC000989658617    0.0800
     48 H48        -7.0512    3.4909   49.5197 H       1  ZINC000989658617    0.0600
     49 H49        -7.4322    4.4153   50.9924 H       1  ZINC000989658617    0.0700
     50 H50        -5.8092    4.5224   50.2692 H       1  ZINC000989658617    0.0700
@<TRIPOS>BOND
     1     1     2    1
     2     1    28    1
     3     1    29    1
     4     1    30    1
     5     2     3    1
     6     3     4    1
     7     3    31    1
     8     3    32    1
     9     4     5    2
    10     4     6   am
    11     6    25    1
    12     6     7    1
    13     7     8    1
    14     7    33    1
    15     7    34    1
    16     8     9    1
    17     8    35    1
    18     8    36    1
    19     9    10    1
    20     9    11    1
    21     9    25    1
    22    11    12   am
    23    11    37    1
    24    12    13    2
    25    12    14    1
    26    14    18    1
    27    14    15    2
    28    15    16    1
    29    16    17    1
    30    16    38    1
    31    17    24    1
    32    17    18    2
    33    18    19    1
    34    19    20    1
    35    19    39    1
    36    19    40    1
    37    20    21    1
    38    20    22    1
    39    20    23    1
    40    22    41    1
    41    22    42    1
    42    22    43    1
    43    23    24    1
    44    23    44    1
    45    23    45    1
    46    24    46    1
    47    24    47    1
    48    25    26    1
    49    25    27    1
    50    27    48    1
    51    27    49    1
    52    27    50    1
@<TRIPOS>SUBSTRUCTURE
     1 ZINC000989658617        1 TEMP              0 ****  ****    0 ROOT


##########                                Name:    ZINC001492779707
##########                DOCK_Rotatable_Bonds:                   8
##########                         Heavy_Atoms:                  27
##########                    Molecular_Weight:             374.483
##########                DOCK_Rotatable_Bonds:                   8
##########                       Formal_Charge:           0.0199998
##########                     HBond_Acceptors:                   7
##########                        HBond_Donors:                   0
##########                         Heavy_Atoms:                  27
##########                          Grid_Score:          -32.278782
##########                     Grid_vdw_energy:          -32.282818
##########                      Grid_es_energy:            0.004036
##########           Internal_energy_repulsive:            6.967074

@<TRIPOS>MOLECULE
ZINC001492779707
 57 59 1 0 0
SMALL
USER_CHARGES


@<TRIPOS>ATOM
      1 C1          3.5279    2.1344   42.9432 C.3     1  ZINC001492779707   -0.0700
      2 C2          2.5983    1.6971   44.0457 C.2     1  ZINC001492779707    0.1800
      3 N3          2.4869    0.4922   44.5292 N.2     1  ZINC001492779707   -0.2900
      4 N4          1.6004    0.4711   45.4598 N.2     1  ZINC001492779707   -0.3100
      5 C5          1.0949    1.6712   45.6211 C.2     1  ZINC001492779707    0.3400
      6 N6          0.1154    2.0370   46.5308 N.3     1  ZINC001492779707   -0.4600
      7 C7         -1.2250    1.7362   46.0105 C.3     1  ZINC001492779707    0.0300
      8 C8          0.3341    1.3868   47.8297 C.3     1  ZINC001492779707    0.1100
      9 C9         -0.4772    2.0908   48.8867 C.ar    1  ZINC001492779707   -0.0400
     10 C10        -0.2029    3.4079   49.2047 C.ar    1  ZINC001492779707   -0.1300
     11 C11        -0.9455    4.0568   50.1742 C.ar    1  ZINC001492779707   -0.0800
     12 C12        -1.9635    3.3899   50.8274 C.ar    1  ZINC001492779707   -0.2100
     13 C13        -2.2407    2.0679   50.5102 C.ar    1  ZINC001492779707    0.1300
     14 O14        -3.2421    1.4096   51.1512 O.3     1  ZINC001492779707   -0.3100
     15 C15        -4.5271    1.4162   50.5260 C.3     1  ZINC001492779707    0.0800
     16 C16        -5.1240    0.0082   50.5724 C.3     1  ZINC001492779707   -0.1500
     17 C17        -5.4498    2.3860   51.2668 C.3     1  ZINC001492779707   -0.1800
     18 C18        -1.4981    1.4210   49.5334 C.ar    1  ZINC001492779707   -0.1400
     19 N19         1.7197    2.4921   44.7281 N.pl3   1  ZINC001492779707   -0.4600
     20 C20         1.4901    3.9260   44.5340 C.3     1  ZINC001492779707    0.1200
     21 C21         0.4702    4.1320   43.4123 C.3     1  ZINC001492779707   -0.1200
     22 C22         0.6383    5.5331   42.8212 C.3     1  ZINC001492779707    0.0600
     23 H23         1.6488    5.6438   42.4279 H       1  ZINC001492779707    0.0800
     24 C24        -0.3758    5.7371   41.6919 C.3     1  ZINC001492779707    0.0300
     25 O25        -0.2881    7.0851   41.2201 O.3     1  ZINC001492779707   -0.3800
     26 C26        -0.5162    8.0640   42.2383 C.3     1  ZINC001492779707    0.0200
     27 C27         0.4978    7.8600   43.3676 C.3     1  ZINC001492779707    0.0300
     28 O28         0.4116    6.5121   43.8398 O.3     1  ZINC001492779707   -0.3800
     29 H29         4.4797    2.4469   43.3730 H       1  ZINC001492779707    0.0900
     30 H30         3.6943    1.3038   42.2572 H       1  ZINC001492779707    0.1000
     31 H31         3.0823    2.9690   42.4019 H       1  ZINC001492779707    0.0800
     32 H32        -1.3466    0.6566   45.9220 H       1  ZINC001492779707    0.0500
     33 H33        -1.9770    2.1317   46.6932 H       1  ZINC001492779707    0.0900
     34 H34        -1.3461    2.1970   45.0301 H       1  ZINC001492779707    0.0700
     35 H35         0.0256    0.3431   47.7701 H       1  ZINC001492779707    0.0700
     36 H36         1.3916    1.4388   48.0886 H       1  ZINC001492779707    0.0900
     37 H37         0.5929    3.9310   48.6952 H       1  ZINC001492779707    0.1200
     38 H38        -0.7290    5.0857   50.4210 H       1  ZINC001492779707    0.1300
     39 H39        -2.5429    3.8969   51.5848 H       1  ZINC001492779707    0.1300
     40 H40        -4.4245    1.7333   49.4882 H       1  ZINC001492779707    0.0700
     41 H41        -5.2265   -0.3090   51.6102 H       1  ZINC001492779707    0.0700
     42 H42        -6.1041    0.0131   50.0954 H       1  ZINC001492779707    0.0800
     43 H43        -4.4665   -0.6828   50.0447 H       1  ZINC001492779707    0.0700
     44 H44        -5.0246    3.3891   51.2337 H       1  ZINC001492779707    0.0600
     45 H45        -6.4300    2.3910   50.7897 H       1  ZINC001492779707    0.0700
     46 H46        -5.5524    2.0690   52.3046 H       1  ZINC001492779707    0.0700
     47 H47        -1.7119    0.3920   49.2847 H       1  ZINC001492779707    0.1300
     48 H48         1.1077    4.3610   45.4573 H       1  ZINC001492779707    0.1000
     49 H49         2.4286    4.4110   44.2653 H       1  ZINC001492779707    0.1000
     50 H50         0.6317    3.3871   42.6331 H       1  ZINC001492779707    0.0900
     51 H51        -0.5376    4.0253   43.8136 H       1  ZINC001492779707    0.0800
     52 H52        -0.1544    5.0502   40.8750 H       1  ZINC001492779707    0.1100
     53 H53        -1.3815    5.5470   42.0666 H       1  ZINC001492779707    0.0600
     54 H54        -0.3964    9.0622   41.8171 H       1  ZINC001492779707    0.1100
     55 H55        -1.5266    7.9522   42.6313 H       1  ZINC001492779707    0.0600
     56 H56         1.5036    8.0501   42.9929 H       1  ZINC001492779707    0.0600
     57 H57         0.2765    8.5470   44.1844 H       1  ZINC001492779707    0.1100
@<TRIPOS>BOND
     1     1     2    1
     2     1    29    1
     3     1    30    1
     4     1    31    1
     5     2    19    1
     6     2     3    2
     7     3     4    1
     8     4     5    2
     9     5     6    1
    10     5    19    1
    11     6     7    1
    12     6     8    1
    13     7    32    1
    14     7    33    1
    15     7    34    1
    16     8     9    1
    17     8    35    1
    18     8    36    1
    19     9    18   ar
    20     9    10   ar
    21    10    11   ar
    22    10    37    1
    23    11    12   ar
    24    11    38    1
    25    12    13   ar
    26    12    39    1
    27    13    14    1
    28    13    18   ar
    29    14    15    1
    30    15    16    1
    31    15    17    1
    32    15    40    1
    33    16    41    1
    34    16    42    1
    35    16    43    1
    36    17    44    1
    37    17    45    1
    38    17    46    1
    39    18    47    1
    40    19    20    1
    41    20    21    1
    42    20    48    1
    43    20    49    1
    44    21    22    1
    45    21    50    1
    46    21    51    1
    47    22    23    1
    48    22    28    1
    49    22    24    1
    50    24    25    1
    51    24    52    1
    52    24    53    1
    53    25    26    1
    54    26    27    1
    55    26    54    1
    56    26    55    1
    57    27    28    1
    58    27    56    1
    59    27    57    1
@<TRIPOS>SUBSTRUCTURE
     1 ZINC001492779707        1 TEMP              0 ****  ****    0 ROOT


##########                                Name:    ZINC000892389374
##########                DOCK_Rotatable_Bonds:                   6
##########                         Heavy_Atoms:                  25
##########                    Molecular_Weight:             371.383
##########                DOCK_Rotatable_Bonds:                   6
##########                       Formal_Charge:          -0.0199998
##########                     HBond_Acceptors:                   9
##########                        HBond_Donors:                   1
##########                         Heavy_Atoms:                  25
##########                          Grid_Score:          -32.274921
##########                     Grid_vdw_energy:          -30.643209
##########                      Grid_es_energy:           -1.631712
##########           Internal_energy_repulsive:            9.377259

@<TRIPOS>MOLECULE
ZINC000892389374
 41 43 1 0 0
SMALL
USER_CHARGES


@<TRIPOS>ATOM
      1 C1         -1.5671    3.3757   52.6804 C.3     1  ZINC000892389374   -0.1000
      2 C2         -1.1734    2.8988   51.3060 C.ar    1  ZINC000892389374   -0.1800
      3 C3          0.0049    3.3382   50.7345 C.ar    1  ZINC000892389374   -0.0400
      4 C4          0.3695    2.9029   49.4748 C.ar    1  ZINC000892389374   -0.2100
      5 C5         -0.4484    2.0221   48.7787 C.ar    1  ZINC000892389374    0.2200
      6 N6         -0.0781    1.5819   47.5029 N.am    1  ZINC000892389374   -0.5700
      7 C7         -0.7393    1.9564   46.2434 C.3     1  ZINC000892389374    0.0600
      8 C8          0.0633    1.1988   45.1682 C.3     1  ZINC000892389374    0.0400
      9 O9          1.0820    0.4844   45.9264 O.3     1  ZINC000892389374   -0.3200
     10 C10         0.9403    0.7551   47.2289 C.2     1  ZINC000892389374    0.6400
     11 O11         1.6635    0.2871   48.0859 O.2     1  ZINC000892389374   -0.5000
     12 C12        -1.6326    1.5786   49.3497 C.ar    1  ZINC000892389374   -0.2300
     13 C13        -1.9935    2.0129   50.6173 C.ar    1  ZINC000892389374    0.2400
     14 N14        -3.1847    1.5691   51.1957 N.pl3   1  ZINC000892389374   -0.7400
     15 C15        -4.2820    1.1009   50.3453 C.3     1  ZINC000892389374    0.2000
     16 C16        -5.5782    1.1777   51.1101 C.2     1  ZINC000892389374   -0.2400
     17 C17        -6.6586    0.4185   50.9045 C.2     1  ZINC000892389374    0.0600
     18 N18        -7.6706    0.6791   51.7072 N.2     1  ZINC000892389374   -0.4500
     19 C19        -7.5041    1.6161   52.5786 C.2     1  ZINC000892389374    0.0200
     20 C20        -8.5409    2.0575   53.5793 C.3     1  ZINC000892389374   -0.0900
     21 C21        -9.9381    1.8448   52.9935 C.3     1  ZINC000892389374    0.4600
     22 F22       -10.1238    0.4871   52.7113 F       1  ZINC000892389374   -0.1800
     23 F23       -10.9004    2.2648   53.9180 F       1  ZINC000892389374   -0.1800
     24 F24       -10.0679    2.5878   51.8152 F       1  ZINC000892389374   -0.1700
     25 S25        -5.9345    2.2792   52.4384 S.3     1  ZINC000892389374    0.1900
     26 H26        -1.1585    2.6989   53.4307 H       1  ZINC000892389374    0.0700
     27 H27        -1.1735    4.3790   52.8434 H       1  ZINC000892389374    0.0700
     28 H28        -2.6540    3.3942   52.7611 H       1  ZINC000892389374    0.0600
     29 H29         0.6422    4.0237   51.2732 H       1  ZINC000892389374    0.1300
     30 H30         1.2914    3.2483   49.0306 H       1  ZINC000892389374    0.1200
     31 H31        -1.7793    1.6303   46.2454 H       1  ZINC000892389374    0.1000
     32 H32        -0.6746    3.0324   46.0824 H       1  ZINC000892389374    0.1000
     33 H33        -0.5787    0.4973   44.6355 H       1  ZINC000892389374    0.1100
     34 H34         0.5258    1.8990   44.4725 H       1  ZINC000892389374    0.1100
     35 H35        -2.2704    0.8939   48.8103 H       1  ZINC000892389374    0.1600
     36 H36        -3.2856    1.5707   52.1605 H       1  ZINC000892389374    0.4000
     37 H37        -4.3465    1.7290   49.4569 H       1  ZINC000892389374    0.0900
     38 H38        -4.0963    0.0688   50.0479 H       1  ZINC000892389374    0.0800
     39 H39        -6.6989   -0.3462   50.1428 H       1  ZINC000892389374    0.1800
     40 H40        -8.4368    1.4718   54.4926 H       1  ZINC000892389374    0.1300
     41 H41        -8.3994    3.1140   53.8072 H       1  ZINC000892389374    0.1400
@<TRIPOS>BOND
     1     1     2    1
     2     1    26    1
     3     1    27    1
     4     1    28    1
     5     2    13   ar
     6     2     3   ar
     7     3     4   ar
     8     3    29    1
     9     4     5   ar
    10     4    30    1
    11     5     6    1
    12     5    12   ar
    13     6    10   am
    14     6     7    1
    15     7     8    1
    16     7    31    1
    17     7    32    1
    18     8     9    1
    19     8    33    1
    20     8    34    1
    21     9    10    1
    22    10    11    2
    23    12    13   ar
    24    12    35    1
    25    13    14    1
    26    14    15    1
    27    14    36    1
    28    15    16    1
    29    15    37    1
    30    15    38    1
    31    16    25    1
    32    16    17    2
    33    17    18    1
    34    17    39    1
    35    18    19    2
    36    19    20    1
    37    19    25    1
    38    20    21    1
    39    20    40    1
    40    20    41    1
    41    21    22    1
    42    21    23    1
    43    21    24    1
@<TRIPOS>SUBSTRUCTURE
     1 ZINC000892389374        1 TEMP              0 ****  ****    0 ROOT


##########                                Name:    ZINC000028372981
##########                DOCK_Rotatable_Bonds:                   7
##########                         Heavy_Atoms:                  28
##########                    Molecular_Weight:             380.443
##########                DOCK_Rotatable_Bonds:                   7
##########                       Formal_Charge:         1.78814e-07
##########                     HBond_Acceptors:                   6
##########                        HBond_Donors:                   1
##########                         Heavy_Atoms:                  28
##########                          Grid_Score:          -32.248421
##########                     Grid_vdw_energy:          -30.592352
##########                      Grid_es_energy:           -1.656068
##########           Internal_energy_repulsive:           17.740622

@<TRIPOS>MOLECULE
ZINC000028372981
 52 54 1 0 0
SMALL
USER_CHARGES


@<TRIPOS>ATOM
      1 C1        -10.7922    2.6650   54.1872 C.3     1  ZINC000028372981   -0.1800
      2 C2         -9.7145    2.1389   53.2746 C.2     1  ZINC000028372981    0.5200
      3 O3         -9.9981    1.3664   52.3838 O.2     1  ZINC000028372981   -0.5100
      4 N4         -8.4356    2.5269   53.4484 N.am    1  ZINC000028372981   -0.5500
      5 C5         -7.9740    3.4534   54.4852 C.3     1  ZINC000028372981    0.1000
      6 C6         -6.4563    3.5751   54.2713 C.3     1  ZINC000028372981   -0.0900
      7 C7         -6.1671    2.6767   53.0893 C.ar    1  ZINC000028372981   -0.1500
      8 C8         -4.9840    2.3830   52.4494 C.ar    1  ZINC000028372981    0.0000
      9 C9         -4.9772    1.5102   51.3575 C.ar    1  ZINC000028372981   -0.1600
     10 C10        -3.7137    1.1961   50.6653 C.2     1  ZINC000028372981    0.5200
     11 O11        -3.5924    0.1437   50.0701 O.2     1  ZINC000028372981   -0.5000
     12 O12        -2.6936    2.0760   50.6926 O.3     1  ZINC000028372981   -0.3200
     13 C13        -1.4036    1.6047   50.2215 C.3     1  ZINC000028372981    0.0700
     14 H14        -1.3091    0.5384   50.4273 H       1  ZINC000028372981    0.1200
     15 C15        -0.2885    2.3641   50.9431 C.3     1  ZINC000028372981   -0.1700
     16 C16        -1.2937    1.8416   48.7373 C.2     1  ZINC000028372981    0.5200
     17 O17        -2.2429    2.2775   48.1208 O.2     1  ZINC000028372981   -0.4900
     18 N18        -0.1406    1.5690   48.0949 N.am    1  ZINC000028372981   -0.6600
     19 C19        -0.0386    1.7889   46.7168 C.ar    1  ZINC000028372981    0.1500
     20 C20        -0.1955    0.7320   45.8301 C.ar    1  ZINC000028372981   -0.1300
     21 C21        -0.0947    0.9525   44.4702 C.ar    1  ZINC000028372981   -0.1000
     22 C22         0.1617    2.2241   43.9918 C.ar    1  ZINC000028372981   -0.1300
     23 C23         0.3180    3.2791   44.8723 C.ar    1  ZINC000028372981   -0.0700
     24 C24         0.5968    4.6634   44.3464 C.3     1  ZINC000028372981   -0.1200
     25 C25         0.2193    3.0651   46.2329 C.ar    1  ZINC000028372981   -0.1200
     26 C26         0.3908    4.2149   47.1918 C.3     1  ZINC000028372981   -0.1200
     27 C27        -6.1765    0.9327   50.9303 C.ar    1  ZINC000028372981   -0.0200
     28 C28        -7.3517    1.2273   51.5781 C.ar    1  ZINC000028372981   -0.1800
     29 C29        -7.3610    2.1049   52.6678 C.ar    1  ZINC000028372981    0.1900
     30 H30       -10.8341    3.7515   54.1115 H       1  ZINC000028372981    0.1000
     31 H31       -11.7538    2.2430   53.8949 H       1  ZINC000028372981    0.1000
     32 H32       -10.5682    2.3809   55.2154 H       1  ZINC000028372981    0.1000
     33 H33        -8.4519    4.4255   54.3634 H       1  ZINC000028372981    0.0900
     34 H34        -8.1851    3.0488   55.4750 H       1  ZINC000028372981    0.0900
     35 H35        -6.1860    4.6056   54.0411 H       1  ZINC000028372981    0.1000
     36 H36        -5.9189    3.2297   55.1545 H       1  ZINC000028372981    0.1000
     37 H37        -4.0614    2.8303   52.7885 H       1  ZINC000028372981    0.1400
     38 H38        -0.3830    3.4304   50.7374 H       1  ZINC000028372981    0.0800
     39 H39        -0.3680    2.1928   52.0167 H       1  ZINC000028372981    0.0800
     40 H40         0.6799    2.0103   50.5895 H       1  ZINC000028372981    0.0800
     41 H41         0.6184    1.2203   48.5879 H       1  ZINC000028372981    0.4100
     42 H42        -0.4006   -0.2607   46.2031 H       1  ZINC000028372981    0.1400
     43 H43        -0.2167    0.1308   43.7801 H       1  ZINC000028372981    0.1300
     44 H44         0.2397    2.3940   42.9280 H       1  ZINC000028372981    0.1200
     45 H45        -0.3456    5.1838   44.1753 H       1  ZINC000028372981    0.0700
     46 H46         1.1901    5.2162   45.0748 H       1  ZINC000028372981    0.0700
     47 H47         1.1477    4.5918   43.4085 H       1  ZINC000028372981    0.0700
     48 H48        -0.5774    4.6793   47.3792 H       1  ZINC000028372981    0.0700
     49 H49         0.8049    3.8467   48.1304 H       1  ZINC000028372981    0.0600
     50 H50         1.0689    4.9506   46.7593 H       1  ZINC000028372981    0.0800
     51 H51        -6.1791    0.2539   50.0903 H       1  ZINC000028372981    0.1500
     52 H52        -8.2753    0.7785   51.2435 H       1  ZINC000028372981    0.1500
@<TRIPOS>BOND
     1     1     2    1
     2     1    30    1
     3     1    31    1
     4     1    32    1
     5     2     3    2
     6     2     4   am
     7     4    29    1
     8     4     5    1
     9     5     6    1
    10     5    33    1
    11     5    34    1
    12     6     7    1
    13     6    35    1
    14     6    36    1
    15     7    29   ar
    16     7     8   ar
    17     8     9   ar
    18     8    37    1
    19     9    10    1
    20     9    27   ar
    21    10    11    2
    22    10    12    1
    23    12    13    1
    24    13    14    1
    25    13    15    1
    26    13    16    1
    27    15    38    1
    28    15    39    1
    29    15    40    1
    30    16    17    2
    31    16    18   am
    32    18    19    1
    33    18    41    1
    34    19    25   ar
    35    19    20   ar
    36    20    21   ar
    37    20    42    1
    38    21    22   ar
    39    21    43    1
    40    22    23   ar
    41    22    44    1
    42    23    24    1
    43    23    25   ar
    44    24    45    1
    45    24    46    1
    46    24    47    1
    47    25    26    1
    48    26    48    1
    49    26    49    1
    50    26    50    1
    51    27    28   ar
    52    27    51    1
    53    28    29   ar
    54    28    52    1
@<TRIPOS>SUBSTRUCTURE
     1 ZINC000028372981        1 TEMP              0 ****  ****    0 ROOT


##########                                Name:    ZINC000547864253
##########                DOCK_Rotatable_Bonds:                   6
##########                         Heavy_Atoms:                  30
##########                    Molecular_Weight:             422.548
##########                DOCK_Rotatable_Bonds:                   6
##########                       Formal_Charge:           0.0300002
##########                     HBond_Acceptors:                   6
##########                        HBond_Donors:                   2
##########                         Heavy_Atoms:                  30
##########                          Grid_Score:          -32.235451
##########                     Grid_vdw_energy:          -31.091286
##########                      Grid_es_energy:           -1.144164
##########           Internal_energy_repulsive:           10.105464

@<TRIPOS>MOLECULE
ZINC000547864253
 56 60 1 0 0
SMALL
USER_CHARGES


@<TRIPOS>ATOM
      1 O1         -9.9306   -2.0251   56.8623 O.2     1  ZINC000547864253   -0.5300
      2 C2         -9.4791   -0.9342   57.1396 C.2     1  ZINC000547864253    0.5400
      3 N3         -9.9234    0.1627   56.4945 N.am    1  ZINC000547864253   -0.7200
      4 C4        -10.9471    0.0363   55.4542 C.3     1  ZINC000547864253    0.1300
      5 C5        -10.9286    1.2823   54.5665 C.3     1  ZINC000547864253    0.0200
      6 H6        -10.8054    2.1693   55.1879 H       1  ZINC000547864253    0.0900
      7 C7         -9.7826    1.1882   53.5924 C.2     1  ZINC000547864253   -0.1600
      8 C8         -9.7530    0.4650   52.4619 C.2     1  ZINC000547864253    0.0600
      9 N9         -8.5468    0.6265   51.8362 N.pl3   1  ZINC000547864253   -0.5900
     10 C10        -7.7505    1.4791   52.5676 C.ar    1  ZINC000547864253    0.1000
     11 C11        -6.4620    1.9726   52.3923 C.ar    1  ZINC000547864253   -0.1300
     12 C12        -5.9261    2.8333   53.3254 C.ar    1  ZINC000547864253   -0.1000
     13 C13        -6.6593    3.2142   54.4404 C.ar    1  ZINC000547864253   -0.1400
     14 C14        -7.9271    2.7415   54.6324 C.ar    1  ZINC000547864253   -0.0700
     15 C15        -8.4920    1.8734   53.6965 C.ar    1  ZINC000547864253   -0.1000
     16 C16       -12.2268    1.3774   53.8071 C.ar    1  ZINC000547864253   -0.0700
     17 C17       -12.8920    0.2263   53.4285 C.ar    1  ZINC000547864253   -0.1100
     18 C18       -14.0828    0.3135   52.7319 C.ar    1  ZINC000547864253   -0.1200
     19 C19       -14.6087    1.5519   52.4143 C.ar    1  ZINC000547864253   -0.1200
     20 C20       -13.9440    2.7030   52.7937 C.ar    1  ZINC000547864253   -0.1100
     21 C21       -12.7554    2.6158   53.4940 C.ar    1  ZINC000547864253   -0.1200
     22 C22        -8.4260   -0.8042   58.2097 C.3     1  ZINC000547864253   -0.1700
     23 H23        -7.5123   -0.2910   57.9100 H       1  ZINC000547864253    0.1400
     24 C24        -8.2955   -1.9499   59.2150 C.3     1  ZINC000547864253   -0.1300
     25 C25        -8.9034   -0.6137   59.6519 C.3     1  ZINC000547864253   -0.1400
     26 C26        -8.0578    0.2807   60.5594 C.3     1  ZINC000547864253   -0.0700
     27 C27        -8.1730   -0.1981   62.0081 C.3     1  ZINC000547864253   -0.6000
     28 S28        -9.9074   -0.0955   62.5349 S.o2    1  ZINC000547864253    2.4200
     29 O29       -10.0360   -0.7296   63.8001 O.2     1  ZINC000547864253   -0.9400
     30 O30       -10.3497    1.2462   62.3821 O.2     1  ZINC000547864253   -0.9300
     31 C31       -10.7287   -1.1244   61.2845 C.3     1  ZINC000547864253   -0.6000
     32 C32       -10.4131   -0.5728   59.8925 C.3     1  ZINC000547864253   -0.0700
     33 H33        -9.5652    1.0357   56.7190 H       1  ZINC000547864253    0.4000
     34 H34       -10.7415   -0.8453   54.8473 H       1  ZINC000547864253    0.0800
     35 H35       -11.9277   -0.0636   55.9197 H       1  ZINC000547864253    0.0700
     36 H36       -10.5614   -0.1529   52.0999 H       1  ZINC000547864253    0.1700
     37 H37        -8.2908    0.2032   51.0018 H       1  ZINC000547864253    0.4200
     38 H38        -5.8833    1.6817   51.5280 H       1  ZINC000547864253    0.1200
     39 H39        -4.9253    3.2151   53.1877 H       1  ZINC000547864253    0.1300
     40 H40        -6.2243    3.8894   55.1625 H       1  ZINC000547864253    0.1200
     41 H41        -8.4917    3.0422   55.5025 H       1  ZINC000547864253    0.1200
     42 H42       -12.4811   -0.7412   53.6766 H       1  ZINC000547864253    0.1200
     43 H43       -14.6021   -0.5859   52.4355 H       1  ZINC000547864253    0.1200
     44 H44       -15.5387    1.6200   51.8695 H       1  ZINC000547864253    0.1200
     45 H45       -14.3547    3.6705   52.5453 H       1  ZINC000547864253    0.1200
     46 H46       -12.2361    3.5151   53.7905 H       1  ZINC000547864253    0.1200
     47 H47        -8.9713   -2.7977   59.1025 H       1  ZINC000547864253    0.1100
     48 H48        -7.2959   -2.1902   59.5771 H       1  ZINC000547864253    0.1100
     49 H49        -7.0153    0.2351   60.2442 H       1  ZINC000547864253    0.0900
     50 H50        -8.4128    1.3088   60.4880 H       1  ZINC000547864253    0.0900
     51 H51        -7.8316   -1.2309   62.0785 H       1  ZINC000547864253    0.1400
     52 H52        -7.5594    0.4336   62.6504 H       1  ZINC000547864253    0.1400
     53 H53       -10.3660   -2.1494   61.3610 H       1  ZINC000547864253    0.1400
     54 H54       -11.8063   -1.1055   61.4480 H       1  ZINC000547864253    0.1400
     55 H55       -10.7637    0.4569   59.8224 H       1  ZINC000547864253    0.0900
     56 H56       -10.9169   -1.1789   59.1396 H       1  ZINC000547864253    0.0900
@<TRIPOS>BOND
     1     1     2    2
     2     2     3   am
     3     2    22    1
     4     3     4    1
     5     3    33    1
     6     4     5    1
     7     4    34    1
     8     4    35    1
     9     5     6    1
    10     5     7    1
    11     5    16    1
    12     7    15    1
    13     7     8    2
    14     8     9    1
    15     8    36    1
    16     9    10    1
    17     9    37    1
    18    10    15   ar
    19    10    11   ar
    20    11    12   ar
    21    11    38    1
    22    12    13   ar
    23    12    39    1
    24    13    14   ar
    25    13    40    1
    26    14    15   ar
    27    14    41    1
    28    16    21   ar
    29    16    17   ar
    30    17    18   ar
    31    17    42    1
    32    18    19   ar
    33    18    43    1
    34    19    20   ar
    35    19    44    1
    36    20    21   ar
    37    20    45    1
    38    21    46    1
    39    22    23    1
    40    22    25    1
    41    22    24    1
    42    24    25    1
    43    24    47    1
    44    24    48    1
    45    25    32    1
    46    25    26    1
    47    26    27    1
    48    26    49    1
    49    26    50    1
    50    27    28    1
    51    27    51    1
    52    27    52    1
    53    28    29    2
    54    28    30    2
    55    28    31    1
    56    31    32    1
    57    31    53    1
    58    31    54    1
    59    32    55    1
    60    32    56    1
@<TRIPOS>SUBSTRUCTURE
     1 ZINC000547864253        1 TEMP              0 ****  ****    0 ROOT


##########                                Name:    ZINC000151820600
##########                DOCK_Rotatable_Bonds:                  10
##########                         Heavy_Atoms:                  25
##########                    Molecular_Weight:             388.915
##########                DOCK_Rotatable_Bonds:                  10
##########                       Formal_Charge:           0.0499998
##########                     HBond_Acceptors:                   8
##########                        HBond_Donors:                   2
##########                         Heavy_Atoms:                  25
##########                          Grid_Score:          -32.225334
##########                     Grid_vdw_energy:          -31.388710
##########                      Grid_es_energy:           -0.836624
##########           Internal_energy_repulsive:           14.280416

@<TRIPOS>MOLECULE
ZINC000151820600
 50 50 1 0 0
SMALL
USER_CHARGES


@<TRIPOS>ATOM
      1 C1          2.0450    1.3056   42.7986 C.3     1  ZINC000151820600   -0.4900
      2 S2          0.7192    2.3905   43.3951 S.o     1  ZINC000151820600    1.2500
      3 O3          1.2853    3.5754   43.9382 O.2     1  ZINC000151820600   -0.8500
      4 C4         -0.0373    1.4169   44.7255 C.3     1  ZINC000151820600   -0.4500
      5 C5         -1.1930    2.2074   45.3421 C.3     1  ZINC000151820600   -0.1100
      6 C6         -0.7162    2.8908   46.6254 C.3     1  ZINC000151820600    0.1200
      7 N7         -0.9977    2.0251   47.7732 N.am    1  ZINC000151820600   -0.7200
      8 C8         -0.7078    2.4446   49.0208 C.2     1  ZINC000151820600    0.5200
      9 O9         -0.2125    3.5383   49.1931 O.2     1  ZINC000151820600   -0.5200
     10 C10        -0.9991    1.5549   50.2017 C.3     1  ZINC000151820600    0.1900
     11 H11        -0.9730    0.5119   49.8860 H       1  ZINC000151820600    0.1300
     12 N12         0.0101    1.7761   51.2405 N.am    1  ZINC000151820600   -0.6900
     13 C13         1.2576    1.2911   51.0822 C.2     1  ZINC000151820600    0.6600
     14 O14         1.5449    0.6692   50.0787 O.2     1  ZINC000151820600   -0.5600
     15 O15         2.1854    1.4958   52.0361 O.3     1  ZINC000151820600   -0.3600
     16 C16         2.7578    2.8274   52.1241 C.3     1  ZINC000151820600    0.1400
     17 C17         1.7531    3.7715   52.7876 C.3     1  ZINC000151820600   -0.1800
     18 C18         4.0390    2.7776   52.9589 C.3     1  ZINC000151820600   -0.1400
     19 C19         3.0842    3.3361   50.7186 C.3     1  ZINC000151820600   -0.1800
     20 C20        -2.3645    1.8796   50.7506 C.ar    1  ZINC000151820600   -0.1000
     21 C21        -2.5501    3.0176   51.5129 C.ar    1  ZINC000151820600   -0.0900
     22 C22        -3.8026    3.3164   52.0163 C.ar    1  ZINC000151820600   -0.1000
     23 C23        -4.8697    2.4772   51.7582 C.ar    1  ZINC000151820600   -0.1000
     24 C24        -4.6845    1.3377   50.9951 C.ar    1  ZINC000151820600   -0.0300
     25 Cl25       -6.0246    0.2831   50.6699 Cl      1  ZINC000151820600   -0.0600
     26 C26        -3.4323    1.0423   50.4870 C.ar    1  ZINC000151820600   -0.0900
     27 H27         2.7392    1.0986   43.6130 H       1  ZINC000151820600    0.0800
     28 H28         1.6153    0.3698   42.4407 H       1  ZINC000151820600    0.1100
     29 H29         2.5771    1.7962   41.9835 H       1  ZINC000151820600    0.1100
     30 H30        -0.4149    0.4784   44.3195 H       1  ZINC000151820600    0.1200
     31 H31         0.7090    1.2072   45.4918 H       1  ZINC000151820600    0.0900
     32 H32        -1.5354    2.9622   44.6343 H       1  ZINC000151820600    0.0800
     33 H33        -2.0137    1.5290   45.5752 H       1  ZINC000151820600    0.0900
     34 H34         0.3565    3.0736   46.5626 H       1  ZINC000151820600    0.0800
     35 H35        -1.2397    3.8389   46.7483 H       1  ZINC000151820600    0.0700
     36 H36        -1.3928    1.1499   47.6354 H       1  ZINC000151820600    0.4000
     37 H37        -0.2196    2.2716   52.0421 H       1  ZINC000151820600    0.4200
     38 H38         1.5205    3.4090   53.7890 H       1  ZINC000151820600    0.0600
     39 H39         2.1827    4.7710   52.8537 H       1  ZINC000151820600    0.0700
     40 H40         0.8403    3.8069   52.1929 H       1  ZINC000151820600    0.0900
     41 H41         4.7548    2.1051   52.4862 H       1  ZINC000151820600    0.0700
     42 H42         4.4686    3.7772   53.0250 H       1  ZINC000151820600    0.0800
     43 H43         3.8064    2.4151   53.9602 H       1  ZINC000151820600    0.0700
     44 H44         2.1714    3.3715   50.1239 H       1  ZINC000151820600    0.0900
     45 H45         3.5138    4.3356   50.7847 H       1  ZINC000151820600    0.0700
     46 H46         3.7999    2.6635   50.2459 H       1  ZINC000151820600    0.0600
     47 H47        -1.7163    3.6735   51.7155 H       1  ZINC000151820600    0.1300
     48 H48        -3.9471    4.2058   52.6119 H       1  ZINC000151820600    0.1400
     49 H49        -5.8478    2.7103   52.1522 H       1  ZINC000151820600    0.1400
     50 H50        -3.2872    0.1532   49.8913 H       1  ZINC000151820600    0.1400
@<TRIPOS>BOND
     1     1     2    1
     2     1    27    1
     3     1    28    1
     4     1    29    1
     5     2     3    2
     6     2     4    1
     7     4     5    1
     8     4    30    1
     9     4    31    1
    10     5     6    1
    11     5    32    1
    12     5    33    1
    13     6     7    1
    14     6    34    1
    15     6    35    1
    16     7     8   am
    17     7    36    1
    18     8     9    2
    19     8    10    1
    20    10    11    1
    21    10    12    1
    22    10    20    1
    23    12    13   am
    24    12    37    1
    25    13    14    2
    26    13    15    1
    27    15    16    1
    28    16    17    1
    29    16    18    1
    30    16    19    1
    31    17    38    1
    32    17    39    1
    33    17    40    1
    34    18    41    1
    35    18    42    1
    36    18    43    1
    37    19    44    1
    38    19    45    1
    39    19    46    1
    40    20    26   ar
    41    20    21   ar
    42    21    22   ar
    43    21    47    1
    44    22    23   ar
    45    22    48    1
    46    23    24   ar
    47    23    49    1
    48    24    25    1
    49    24    26   ar
    50    26    50    1
@<TRIPOS>SUBSTRUCTURE
     1 ZINC000151820600        1 TEMP              0 ****  ****    0 ROOT


##########                                Name:    ZINC000538774026
##########                DOCK_Rotatable_Bonds:                  10
##########                         Heavy_Atoms:                  29
##########                    Molecular_Weight:             414.496
##########                DOCK_Rotatable_Bonds:                  10
##########                       Formal_Charge:            0.049999
##########                     HBond_Acceptors:                   9
##########                        HBond_Donors:                   2
##########                         Heavy_Atoms:                  29
##########                          Grid_Score:          -32.224491
##########                     Grid_vdw_energy:          -32.699516
##########                      Grid_es_energy:            0.475024
##########           Internal_energy_repulsive:           24.106350

@<TRIPOS>MOLECULE
ZINC000538774026
 61 62 1 0 0
SMALL
USER_CHARGES


@<TRIPOS>ATOM
      1 C1        -10.4327    1.9287   54.5276 C.3     1  ZINC000538774026   -0.1500
      2 C2         -9.7559    1.4043   53.2595 C.3     1  ZINC000538774026   -0.1100
      3 C3        -10.8139    1.1536   52.1831 C.3     1  ZINC000538774026   -0.1400
      4 C4         -8.7490    2.4393   52.7537 C.3     1  ZINC000538774026    0.1400
      5 N5         -7.7656    1.7821   51.8893 N.pl3   1  ZINC000538774026   -0.3400
      6 N6         -7.6763    0.4068   51.6392 N.2     1  ZINC000538774026   -0.2500
      7 C7         -6.6771    0.2007   50.8201 C.2     1  ZINC000538774026    0.0500
      8 C8         -6.0920    1.4388   50.5175 C.2     1  ZINC000538774026    0.0800
      9 N9         -4.9881    1.6491   49.6686 N.am    1  ZINC000538774026   -0.6600
     10 C10        -3.7391    1.4107   50.1156 C.2     1  ZINC000538774026    0.7100
     11 O11        -3.5656    1.0124   51.2514 O.2     1  ZINC000538774026   -0.5700
     12 N12        -2.6826    1.6135   49.3038 N.am    1  ZINC000538774026   -0.7300
     13 C13        -1.3250    1.3559   49.7903 C.3     1  ZINC000538774026    0.1600
     14 C14        -0.4327    0.9436   48.6177 C.3     1  ZINC000538774026   -0.1300
     15 C15        -0.3984    2.0696   47.5824 C.3     1  ZINC000538774026   -0.1000
     16 C16         0.1615    3.3388   48.2276 C.3     1  ZINC000538774026   -0.0800
     17 C17         0.1952    4.4479   47.2077 C.2     1  ZINC000538774026    0.4700
     18 O18         0.5078    5.5662   47.5416 O.2     1  ZINC000538774026   -0.5000
     19 O19        -0.1218    4.1932   45.9285 O.3     1  ZINC000538774026   -0.3500
     20 C20         0.9456    4.3036   44.9503 C.3     1  ZINC000538774026    0.1200
     21 C21         0.5162    3.6247   43.6481 C.3     1  ZINC000538774026   -0.1800
     22 C22         1.2408    5.7807   44.6822 C.3     1  ZINC000538774026   -0.1400
     23 C23         2.2044    3.6217   45.4900 C.3     1  ZINC000538774026   -0.1800
     24 C24        -0.7308    3.7511   49.4000 C.3     1  ZINC000538774026   -0.1100
     25 C25        -0.7650    2.6253   50.4355 C.3     1  ZINC000538774026   -0.1300
     26 C26        -6.7824    2.3991   51.1834 C.2     1  ZINC000538774026   -0.0500
     27 C27        -6.5033    3.8797   51.1527 C.3     1  ZINC000538774026    0.3500
     28 F28        -7.2608    4.4761   50.1389 F       1  ZINC000538774026   -0.1900
     29 F29        -6.8472    4.4447   52.3855 F       1  ZINC000538774026   -0.1900
     30 H30       -11.1501    1.1914   54.8879 H       1  ZINC000538774026    0.0600
     31 H31        -9.6790    2.1073   55.2943 H       1  ZINC000538774026    0.0600
     32 H32       -10.9513    2.8609   54.3036 H       1  ZINC000538774026    0.0600
     33 H33        -9.2373    0.4721   53.4834 H       1  ZINC000538774026    0.0800
     34 H34       -11.3324    2.0858   51.9592 H       1  ZINC000538774026    0.0600
     35 H35       -10.3317    0.7801   51.2797 H       1  ZINC000538774026    0.0600
     36 H36       -11.5313    0.4163   52.5435 H       1  ZINC000538774026    0.0600
     37 H37        -9.2731    3.2095   52.1877 H       1  ZINC000538774026    0.1000
     38 H38        -8.2394    2.8955   53.6023 H       1  ZINC000538774026    0.1000
     39 H39        -6.3572   -0.7589   50.4419 H       1  ZINC000538774026    0.2100
     40 H40        -5.1265    1.9656   48.7622 H       1  ZINC000538774026    0.4100
     41 H41        -2.8211    1.9300   48.3974 H       1  ZINC000538774026    0.4000
     42 H42        -1.3493    0.5539   50.5279 H       1  ZINC000538774026    0.1000
     43 H43         0.5774    0.7520   48.9797 H       1  ZINC000538774026    0.0800
     44 H44        -0.8316    0.0394   48.1581 H       1  ZINC000538774026    0.0800
     45 H45         0.2373    1.7757   46.7470 H       1  ZINC000538774026    0.0700
     46 H46        -1.4086    2.2612   47.2204 H       1  ZINC000538774026    0.0700
     47 H47         1.1716    3.1472   48.5895 H       1  ZINC000538774026    0.1100
     48 H48        -0.3807    4.1105   43.2638 H       1  ZINC000538774026    0.0600
     49 H49         1.3175    3.7076   42.9139 H       1  ZINC000538774026    0.0700
     50 H50         0.3060    2.5725   43.8392 H       1  ZINC000538774026    0.0800
     51 H51         1.5466    6.2644   45.6099 H       1  ZINC000538774026    0.0700
     52 H52         2.0419    5.8636   43.9479 H       1  ZINC000538774026    0.0800
     53 H53         0.3439    6.2665   44.2978 H       1  ZINC000538774026    0.0700
     54 H54         1.9942    2.5695   45.6811 H       1  ZINC000538774026    0.0800
     55 H55         3.0057    3.7047   44.7557 H       1  ZINC000538774026    0.0700
     56 H56         2.5103    4.1054   46.4177 H       1  ZINC000538774026    0.0600
     57 H57        -0.3319    4.6555   49.8597 H       1  ZINC000538774026    0.0800
     58 H58        -1.7409    3.9428   49.0381 H       1  ZINC000538774026    0.0600
     59 H59        -1.4007    2.9191   51.2707 H       1  ZINC000538774026    0.0800
     60 H60         0.2451    2.4337   50.7974 H       1  ZINC000538774026    0.0900
     61 H61        -5.4434    4.0457   50.9599 H       1  ZINC000538774026    0.1300
@<TRIPOS>BOND
     1     1     2    1
     2     1    30    1
     3     1    31    1
     4     1    32    1
     5     2     3    1
     6     2     4    1
     7     2    33    1
     8     3    34    1
     9     3    35    1
    10     3    36    1
    11     4     5    1
    12     4    37    1
    13     4    38    1
    14     5    26    1
    15     5     6    1
    16     6     7    2
    17     7     8    1
    18     7    39    1
    19     8     9    1
    20     8    26    2
    21     9    10   am
    22     9    40    1
    23    10    11    2
    24    10    12   am
    25    12    13    1
    26    12    41    1
    27    13    25    1
    28    13    14    1
    29    13    42    1
    30    14    15    1
    31    14    43    1
    32    14    44    1
    33    15    16    1
    34    15    45    1
    35    15    46    1
    36    16    17    1
    37    16    24    1
    38    16    47    1
    39    17    18    2
    40    17    19    1
    41    19    20    1
    42    20    21    1
    43    20    22    1
    44    20    23    1
    45    21    48    1
    46    21    49    1
    47    21    50    1
    48    22    51    1
    49    22    52    1
    50    22    53    1
    51    23    54    1
    52    23    55    1
    53    23    56    1
    54    24    25    1
    55    24    57    1
    56    24    58    1
    57    25    59    1
    58    25    60    1
    59    26    27    1
    60    27    28    1
    61    27    29    1
    62    27    61    1
@<TRIPOS>SUBSTRUCTURE
     1 ZINC000538774026        1 TEMP              0 ****  ****    0 ROOT


##########                                Name:    ZINC000503413572
##########                DOCK_Rotatable_Bonds:                   7
##########                         Heavy_Atoms:                  26
##########                    Molecular_Weight:             355.375
##########                DOCK_Rotatable_Bonds:                   7
##########                       Formal_Charge:        -1.71363e-07
##########                     HBond_Acceptors:                   9
##########                        HBond_Donors:                   1
##########                         Heavy_Atoms:                  26
##########                          Grid_Score:          -32.223816
##########                     Grid_vdw_energy:          -31.512690
##########                      Grid_es_energy:           -0.711128
##########           Internal_energy_repulsive:            6.823988

@<TRIPOS>MOLECULE
ZINC000503413572
 44 47 1 0 0
SMALL
USER_CHARGES


@<TRIPOS>ATOM
      1 C1          0.3028    0.3644   47.0242 C.3     1  ZINC000503413572   -0.1200
      2 C2          0.3577    1.8623   46.8695 C.ar    1  ZINC000503413572   -0.0200
      3 C3          1.1646    2.4278   45.9020 C.ar    1  ZINC000503413572   -0.1400
      4 C4          1.2150    3.8046   45.7592 C.ar    1  ZINC000503413572    0.1300
      5 F5          2.0047    4.3561   44.8118 F       1  ZINC000503413572   -0.1300
      6 C6          0.4566    4.6164   46.5857 C.ar    1  ZINC000503413572   -0.1400
      7 C7         -0.3516    4.0543   47.5545 C.ar    1  ZINC000503413572   -0.0700
      8 C8         -0.4074    2.6746   47.6957 C.ar    1  ZINC000503413572    0.1000
      9 N9         -1.2281    2.1019   48.6787 N.pl3   1  ZINC000503413572   -0.3100
     10 C10        -2.5522    1.8555   48.5791 C.2     1  ZINC000503413572    0.1100
     11 C11        -2.9398    1.2949   49.7632 C.2     1  ZINC000503413572   -0.1000
     12 C12        -4.3076    0.8612   50.1051 C.2     1  ZINC000503413572    0.6100
     13 O13        -4.5755   -0.3238   50.1533 O.2     1  ZINC000503413572   -0.5300
     14 N14        -5.2605    1.7786   50.3640 N.am    1  ZINC000503413572   -0.7200
     15 C15        -6.6185    1.3479   50.7052 C.3     1  ZINC000503413572    0.1100
     16 C16        -7.3430    2.4785   51.4385 C.3     1  ZINC000503413572    0.1000
     17 N17        -8.1968    1.9128   52.4860 N.pl3   1  ZINC000503413572   -0.4700
     18 C18        -9.0783    0.8921   52.3562 C.2     1  ZINC000503413572    0.1500
     19 N19        -9.6296    0.7043   53.5243 N.2     1  ZINC000503413572   -0.2900
     20 N20        -9.1465    1.5430   54.3710 N.2     1  ZINC000503413572   -0.2900
     21 C21        -8.2609    2.3003   53.7828 C.2     1  ZINC000503413572    0.2100
     22 C22        -7.4648    3.4072   54.4247 C.3     1  ZINC000503413572   -0.1000
     23 C23        -6.7743    3.1009   55.7552 C.3     1  ZINC000503413572   -0.1500
     24 C24        -5.9444    3.2447   54.4780 C.3     1  ZINC000503413572   -0.1600
     25 N25        -1.8640    1.2052   50.5639 N.2     1  ZINC000503413572   -0.2000
     26 N26        -0.8307    1.6693   49.9519 N.2     1  ZINC000503413572   -0.0400
     27 H27        -0.5431   -0.0285   46.4602 H       1  ZINC000503413572    0.0900
     28 H28         1.2266   -0.0741   46.6464 H       1  ZINC000503413572    0.0800
     29 H29         0.1854    0.1120   48.0781 H       1  ZINC000503413572    0.0700
     30 H30         1.7570    1.7962   45.2568 H       1  ZINC000503413572    0.1500
     31 H31         0.4974    5.6897   46.4731 H       1  ZINC000503413572    0.1500
     32 H32        -0.9427    4.6878   48.1993 H       1  ZINC000503413572    0.1500
     33 H33        -3.1834    2.0624   47.7274 H       1  ZINC000503413572    0.2100
     34 H34        -5.0471    2.7241   50.3243 H       1  ZINC000503413572    0.4100
     35 H35        -7.1611    1.1002   49.7929 H       1  ZINC000503413572    0.0800
     36 H36        -6.5702    0.4697   51.3491 H       1  ZINC000503413572    0.0800
     37 H37        -6.6100    3.1477   51.8891 H       1  ZINC000503413572    0.1100
     38 H38        -7.9570    3.0357   50.7309 H       1  ZINC000503413572    0.1100
     39 H39        -9.2869    0.3373   51.4534 H       1  ZINC000503413572    0.2200
     40 H40        -7.8587    4.4135   54.2817 H       1  ZINC000503413572    0.1200
     41 H41        -6.7140    3.9056   56.4878 H       1  ZINC000503413572    0.1100
     42 H42        -6.8959    2.0987   56.1663 H       1  ZINC000503413572    0.1100
     43 H43        -5.5199    2.3371   54.0487 H       1  ZINC000503413572    0.1000
     44 H44        -5.3381    4.1440   54.3703 H       1  ZINC000503413572    0.1100
@<TRIPOS>BOND
     1     1     2    1
     2     1    27    1
     3     1    28    1
     4     1    29    1
     5     2     8   ar
     6     2     3   ar
     7     3     4   ar
     8     3    30    1
     9     4     5    1
    10     4     6   ar
    11     6     7   ar
    12     6    31    1
    13     7     8   ar
    14     7    32    1
    15     8     9    1
    16     9    26    1
    17     9    10    1
    18    10    11    2
    19    10    33    1
    20    11    12    1
    21    11    25    1
    22    12    13    2
    23    12    14   am
    24    14    15    1
    25    14    34    1
    26    15    16    1
    27    15    35    1
    28    15    36    1
    29    16    17    1
    30    16    37    1
    31    16    38    1
    32    17    21    1
    33    17    18    1
    34    18    19    2
    35    18    39    1
    36    19    20    1
    37    20    21    2
    38    21    22    1
    39    22    24    1
    40    22    23    1
    41    22    40    1
    42    23    24    1
    43    23    41    1
    44    23    42    1
    45    24    43    1
    46    24    44    1
    47    25    26    2
@<TRIPOS>SUBSTRUCTURE
     1 ZINC000503413572        1 TEMP              0 ****  ****    0 ROOT


##########                                Name:    ZINC001018437438
##########                DOCK_Rotatable_Bonds:                   8
##########                         Heavy_Atoms:                  24
##########                    Molecular_Weight:              333.39
##########                DOCK_Rotatable_Bonds:                   8
##########                       Formal_Charge:        -4.17233e-07
##########                     HBond_Acceptors:                   8
##########                        HBond_Donors:                   4
##########                         Heavy_Atoms:                  24
##########                          Grid_Score:          -32.217403
##########                     Grid_vdw_energy:          -30.441862
##########                      Grid_es_energy:           -1.775541
##########           Internal_energy_repulsive:           87.635262

@<TRIPOS>MOLECULE
ZINC001018437438
 47 49 1 0 0
SMALL
USER_CHARGES


@<TRIPOS>ATOM
      1 C1          2.1954    1.0200   47.4202 C.3     1  ZINC001018437438   -0.1400
      2 C2          1.0346    1.7706   48.0758 C.3     1  ZINC001018437438    0.1400
      3 H3          1.0490    2.8137   47.7598 H       1  ZINC001018437438    0.0700
      4 C4         -0.2924    1.1269   47.6619 C.3     1  ZINC001018437438   -0.1300
      5 C5         -1.4383    1.7918   48.4280 C.3     1  ZINC001018437438   -0.1300
      6 C6         -1.2437    1.5742   49.9303 C.3     1  ZINC001018437438    0.1300
      7 H7         -1.2109    0.5055   50.1419 H       1  ZINC001018437438    0.1000
      8 N8         -2.3579    2.1833   50.6610 N.am    1  ZINC001018437438   -0.7200
      9 C9         -3.5261    1.5222   50.7819 C.2     1  ZINC001018437438    0.6000
     10 O10        -3.6549    0.4192   50.2857 O.2     1  ZINC001018437438   -0.5100
     11 C11        -4.6459    2.1349   51.5143 C.2     1  ZINC001018437438   -0.0400
     12 C12        -5.8099    1.5097   51.9266 C.2     1  ZINC001018437438   -0.1400
     13 C13        -6.5524    2.5001   52.5738 C.2     1  ZINC001018437438    0.0600
     14 C14        -7.9082    2.3213   53.2067 C.3     1  ZINC001018437438   -0.0800
     15 C15        -9.1102    2.9375   52.4881 C.3     1  ZINC001018437438   -0.1700
     16 C16        -8.9119    1.4204   52.4842 C.3     1  ZINC001018437438   -0.1600
     17 N17        -5.8614    3.6107   52.5334 N.2     1  ZINC001018437438   -0.2600
     18 N18        -4.7422    3.4329   51.9285 N.pl3   1  ZINC001018437438   -0.3800
     19 C19         0.0724    2.2230   50.3699 C.3     1  ZINC001018437438    0.1000
     20 N20         1.1635    1.6971   49.5375 N.am    1  ZINC001018437438   -0.6100
     21 C21         2.2588    1.1534   50.1043 C.2     1  ZINC001018437438    0.5200
     22 O22         3.1502    0.7185   49.4063 O.2     1  ZINC001018437438   -0.4800
     23 C23         2.3756    1.0855   51.6053 C.3     1  ZINC001018437438   -0.1700
     24 C24         3.6468    0.3670   51.9781 C.2     1  ZINC001018437438    0.5200
     25 N25         3.6860   -0.9802   51.9716 N.am    1  ZINC001018437438   -0.8600
     26 O26         4.6343    1.0010   52.2839 O.2     1  ZINC001018437438   -0.5000
     27 H27         2.2401    0.0046   47.8139 H       1  ZINC001018437438    0.0700
     28 H28         2.0424    0.9851   46.3416 H       1  ZINC001018437438    0.0500
     29 H29         3.1307    1.5356   47.6379 H       1  ZINC001018437438    0.0800
     30 H30        -0.4439    1.2622   46.5910 H       1  ZINC001018437438    0.0900
     31 H31        -0.2686    0.0623   47.8948 H       1  ZINC001018437438    0.0700
     32 H32        -1.4462    2.8606   48.2138 H       1  ZINC001018437438    0.0700
     33 H33        -2.3861    1.3524   48.1171 H       1  ZINC001018437438    0.0800
     34 H34        -2.2549    3.0624   51.0577 H       1  ZINC001018437438    0.4000
     35 H35        -6.0855    0.4760   51.7794 H       1  ZINC001018437438    0.1700
     36 H36        -7.9213    2.3163   54.2967 H       1  ZINC001018437438    0.1200
     37 H37        -9.9143    3.3384   53.1053 H       1  ZINC001018437438    0.1000
     38 H38        -8.9203    3.4724   51.5576 H       1  ZINC001018437438    0.1000
     39 H39        -8.5916    0.9571   51.5510 H       1  ZINC001018437438    0.1000
     40 H40        -9.5855    0.8232   53.0987 H       1  ZINC001018437438    0.1000
     41 H41        -4.0710    4.1177   51.7821 H       1  ZINC001018437438    0.4400
     42 H42         0.0073    3.3037   50.2432 H       1  ZINC001018437438    0.0700
     43 H43         0.2647    1.9868   51.4165 H       1  ZINC001018437438    0.0900
     44 H44         2.3960    2.0958   52.0141 H       1  ZINC001018437438    0.1200
     45 H45         1.5205    0.5461   52.0123 H       1  ZINC001018437438    0.1200
     46 H46         4.5036   -1.4429   52.2126 H       1  ZINC001018437438    0.4000
     47 H47         2.8963   -1.4871   51.7258 H       1  ZINC001018437438    0.4000
@<TRIPOS>BOND
     1     1     2    1
     2     1    27    1
     3     1    28    1
     4     1    29    1
     5     2     3    1
     6     2    20    1
     7     2     4    1
     8     4     5    1
     9     4    30    1
    10     4    31    1
    11     5     6    1
    12     5    32    1
    13     5    33    1
    14     6     7    1
    15     6     8    1
    16     6    19    1
    17     8     9   am
    18     8    34    1
    19     9    10    2
    20     9    11    1
    21    11    18    1
    22    11    12    2
    23    12    13    1
    24    12    35    1
    25    13    14    1
    26    13    17    2
    27    14    16    1
    28    14    15    1
    29    14    36    1
    30    15    16    1
    31    15    37    1
    32    15    38    1
    33    16    39    1
    34    16    40    1
    35    17    18    1
    36    18    41    1
    37    19    20    1
    38    19    42    1
    39    19    43    1
    40    20    21   am
    41    21    22    2
    42    21    23    1
    43    23    24    1
    44    23    44    1
    45    23    45    1
    46    24    25   am
    47    24    26    2
    48    25    46    1
    49    25    47    1
@<TRIPOS>SUBSTRUCTURE
     1 ZINC001018437438        1 TEMP              0 ****  ****    0 ROOT


##########                                Name:    ZINC000426037318
##########                DOCK_Rotatable_Bonds:                   7
##########                         Heavy_Atoms:                  28
##########                    Molecular_Weight:             421.904
##########                DOCK_Rotatable_Bonds:                   7
##########                       Formal_Charge:         -0.00999981
##########                     HBond_Acceptors:                   9
##########                        HBond_Donors:                   1
##########                         Heavy_Atoms:                  28
##########                          Grid_Score:          -32.187321
##########                     Grid_vdw_energy:          -31.492973
##########                      Grid_es_energy:           -0.694348
##########           Internal_energy_repulsive:           17.529507

@<TRIPOS>MOLECULE
ZINC000426037318
 48 50 1 0 0
SMALL
USER_CHARGES


@<TRIPOS>ATOM
      1 C1         -0.1284    0.8330   47.3162 C.3     1  ZINC000426037318    0.0300
      2 O2         -1.1789    1.3576   48.1306 O.3     1  ZINC000426037318   -0.3800
      3 C3         -1.2201    0.8103   49.4500 C.3     1  ZINC000426037318    0.1300
      4 C4         -2.4721    1.2752   50.1479 C.ar    1  ZINC000426037318    0.3900
      5 N5         -2.3990    2.3046   50.9725 N.ar    1  ZINC000426037318   -0.5700
      6 C6         -3.4675    2.7527   51.6095 C.ar    1  ZINC000426037318    0.4400
      7 O7         -3.3736    3.8090   52.4503 O.3     1  ZINC000426037318   -0.2800
      8 C8         -2.1062    4.4643   52.5296 C.3     1  ZINC000426037318    0.0300
      9 C9         -4.7163    2.1084   51.3974 C.ar    1  ZINC000426037318   -0.2000
     10 C10        -5.9753    2.3853   51.9424 C.2     1  ZINC000426037318    0.0500
     11 C11        -6.1987    3.5104   52.9198 C.3     1  ZINC000426037318   -0.1200
     12 C12        -6.9678    1.5838   51.5368 C.2     1  ZINC000426037318   -0.2700
     13 C13        -8.3635    1.6938   51.9791 C.2     1  ZINC000426037318    0.6000
     14 O14        -9.0310    2.6575   51.6528 O.2     1  ZINC000426037318   -0.5000
     15 N15        -8.9054    0.7273   52.7464 N.am    1  ZINC000426037318   -0.6600
     16 C16       -10.2370    0.8323   53.1684 C.ar    1  ZINC000426037318    0.1200
     17 C17       -11.2697    0.5459   52.2862 C.ar    1  ZINC000426037318   -0.0700
     18 C18       -12.5826    0.6492   52.7031 C.ar    1  ZINC000426037318   -0.0900
     19 C19       -13.7035    0.3378   51.7453 C.3     1  ZINC000426037318   -0.1100
     20 C20       -12.8697    1.0389   54.0029 C.ar    1  ZINC000426037318    0.1300
     21 O21       -14.1624    1.1397   54.4121 O.3     1  ZINC000426037318   -0.3100
     22 C22       -14.3941    1.7405   55.6878 C.3     1  ZINC000426037318    0.0200
     23 C23       -11.8387    1.3255   54.8860 C.ar    1  ZINC000426037318   -0.1800
     24 C24       -10.5249    1.2177   54.4724 C.ar    1  ZINC000426037318   -0.0300
     25 Cl25       -9.2345    1.5757   55.5773 Cl      1  ZINC000426037318   -0.0600
     26 S26        -6.3715    0.3836   50.4032 S.3     1  ZINC000426037318    0.2200
     27 C27        -4.7363    1.0209   50.5120 C.ar    1  ZINC000426037318    0.1300
     28 N28        -3.6010    0.6470   49.9121 N.ar    1  ZINC000426037318   -0.5000
     29 H29        -0.1653    1.2985   46.3313 H       1  ZINC000426037318    0.0900
     30 H30         0.8335    1.0455   47.7827 H       1  ZINC000426037318    0.0500
     31 H31        -0.2521   -0.2451   47.2135 H       1  ZINC000426037318    0.0500
     32 H32        -1.2192   -0.2782   49.3920 H       1  ZINC000426037318    0.0900
     33 H33        -0.3466    1.1450   50.0096 H       1  ZINC000426037318    0.0800
     34 H34        -1.8330    4.8473   51.5464 H       1  ZINC000426037318    0.0700
     35 H35        -2.1682    5.2910   53.2372 H       1  ZINC000426037318    0.1100
     36 H36        -1.3504    3.7543   52.8658 H       1  ZINC000426037318    0.0700
     37 H37        -6.4499    4.4205   52.3749 H       1  ZINC000426037318    0.0900
     38 H38        -7.0173    3.2513   53.5912 H       1  ZINC000426037318    0.1000
     39 H39        -5.2905    3.6734   53.5000 H       1  ZINC000426037318    0.0800
     40 H40        -8.3734   -0.0410   53.0064 H       1  ZINC000426037318    0.4100
     41 H41       -11.0467    0.2428   51.2739 H       1  ZINC000426037318    0.1600
     42 H42       -13.9562   -0.7203   51.8133 H       1  ZINC000426037318    0.0700
     43 H43       -14.5772    0.9372   52.0012 H       1  ZINC000426037318    0.0700
     44 H44       -13.3880    0.5713   50.7284 H       1  ZINC000426037318    0.0700
     45 H45       -13.8871    1.1614   56.4596 H       1  ZINC000426037318    0.0600
     46 H46       -14.0076    2.7595   55.6852 H       1  ZINC000426037318    0.0600
     47 H47       -15.4648    1.7586   55.8918 H       1  ZINC000426037318    0.1000
     48 H48       -12.0631    1.6289   55.8979 H       1  ZINC000426037318    0.1500
@<TRIPOS>BOND
     1     1     2    1
     2     1    29    1
     3     1    30    1
     4     1    31    1
     5     2     3    1
     6     3     4    1
     7     3    32    1
     8     3    33    1
     9     4    28   ar
    10     4     5   ar
    11     5     6   ar
    12     6     7    1
    13     6     9   ar
    14     7     8    1
    15     8    34    1
    16     8    35    1
    17     8    36    1
    18     9    27   ar
    19     9    10    1
    20    10    11    1
    21    10    12    2
    22    11    37    1
    23    11    38    1
    24    11    39    1
    25    12    13    1
    26    12    26    1
    27    13    14    2
    28    13    15   am
    29    15    16    1
    30    15    40    1
    31    16    24   ar
    32    16    17   ar
    33    17    18   ar
    34    17    41    1
    35    18    19    1
    36    18    20   ar
    37    19    42    1
    38    19    43    1
    39    19    44    1
    40    20    21    1
    41    20    23   ar
    42    21    22    1
    43    22    45    1
    44    22    46    1
    45    22    47    1
    46    23    24   ar
    47    23    48    1
    48    24    25    1
    49    26    27    1
    50    27    28   ar
@<TRIPOS>SUBSTRUCTURE
     1 ZINC000426037318        1 TEMP              0 ****  ****    0 ROOT


##########                                Name:    ZINC000066361645
##########                DOCK_Rotatable_Bonds:                   8
##########                         Heavy_Atoms:                  27
##########                    Molecular_Weight:             392.519
##########                DOCK_Rotatable_Bonds:                   8
##########                       Formal_Charge:           0.0100004
##########                     HBond_Acceptors:                   7
##########                        HBond_Donors:                   2
##########                         Heavy_Atoms:                  27
##########                          Grid_Score:          -32.146175
##########                     Grid_vdw_energy:          -31.748148
##########                      Grid_es_energy:           -0.398029
##########           Internal_energy_repulsive:            8.751202

@<TRIPOS>MOLECULE
ZINC000066361645
 55 57 1 0 0
SMALL
USER_CHARGES


@<TRIPOS>ATOM
      1 C1         -2.2579    4.6410   54.5128 C.3     1  ZINC000066361645   -0.1400
      2 S2         -2.0340    4.9170   52.7340 S.3     1  ZINC000066361645   -0.1100
      3 C3         -2.7041    3.4530   52.0184 C.ar    1  ZINC000066361645   -0.1200
      4 C4         -4.0750    3.2434   52.0208 C.ar    1  ZINC000066361645   -0.1100
      5 C5         -4.6038    2.0914   51.4568 C.ar    1  ZINC000066361645    0.0500
      6 C6         -3.7594    1.1463   50.8871 C.ar    1  ZINC000066361645    0.0700
      7 C7         -2.3877    1.3532   50.8852 C.ar    1  ZINC000066361645   -0.1100
      8 C8         -1.8574    2.5057   51.4436 C.ar    1  ZINC000066361645    0.1800
      9 N9         -0.4699    2.7137   51.4405 N.am    1  ZINC000066361645   -0.6600
     10 C10         0.0998    3.4452   50.4624 C.2     1  ZINC000066361645    0.5100
     11 O11        -0.5871    3.9239   49.5846 O.2     1  ZINC000066361645   -0.5000
     12 C12         1.5901    3.6686   50.4592 C.3     1  ZINC000066361645   -0.1500
     13 C13         2.2892    2.4364   49.8813 C.3     1  ZINC000066361645    0.1600
     14 H14         1.9636    1.5473   50.4211 H       1  ZINC000066361645    0.1000
     15 C15         3.8041    2.5947   50.0262 C.3     1  ZINC000066361645   -0.1600
     16 N16         1.9460    2.3002   48.4636 N.am    1  ZINC000066361645   -0.7200
     17 C17         1.1102    1.3214   48.0636 C.2     1  ZINC000066361645    0.5300
     18 O18         0.6413    0.5542   48.8776 O.2     1  ZINC000066361645   -0.5400
     19 C19         0.7585    1.1802   46.6051 C.3     1  ZINC000066361645   -0.1100
     20 C20        -0.3209    2.2010   46.2396 C.3     1  ZINC000066361645   -0.1100
     21 C21        -0.6779    2.0576   44.7587 C.3     1  ZINC000066361645   -0.1200
     22 C22         0.5686    2.3064   43.9072 C.3     1  ZINC000066361645   -0.1200
     23 C23         1.6481    1.2855   44.2727 C.3     1  ZINC000066361645   -0.1200
     24 C24         2.0051    1.4289   45.7535 C.3     1  ZINC000066361645   -0.1000
     25 O25        -4.2626    0.0131   50.3222 O.3     1  ZINC000066361645   -0.3000
     26 C26        -5.6055   -0.3388   50.6716 C.3     1  ZINC000066361645    0.0200
     27 C27        -6.4749    0.9217   50.5683 C.3     1  ZINC000066361645    0.0200
     28 O28        -5.9524    1.9014   51.4721 O.3     1  ZINC000066361645   -0.3100
     29 H29        -3.3186    4.5160   54.7305 H       1  ZINC000066361645    0.0900
     30 H30        -1.7173    3.7431   54.8121 H       1  ZINC000066361645    0.0900
     31 H31        -1.8723    5.4982   55.0649 H       1  ZINC000066361645    0.1100
     32 H32        -4.7320    3.9781   52.4625 H       1  ZINC000066361645    0.1400
     33 H33        -1.7320    0.6169   50.4446 H       1  ZINC000066361645    0.1600
     34 H34         0.0795    2.3309   52.1424 H       1  ZINC000066361645    0.4100
     35 H35         1.8257    4.5399   49.8482 H       1  ZINC000066361645    0.1000
     36 H36         1.9345    3.8365   51.4796 H       1  ZINC000066361645    0.1200
     37 H37         4.1298    3.4839   49.4864 H       1  ZINC000066361645    0.0600
     38 H38         4.0596    2.6961   51.0810 H       1  ZINC000066361645    0.0700
     39 H39         4.3022    1.7169   49.6145 H       1  ZINC000066361645    0.0700
     40 H40         2.3200    2.9145   47.8128 H       1  ZINC000066361645    0.4000
     41 H41         0.3851    0.1735   46.4171 H       1  ZINC000066361645    0.1000
     42 H42        -1.2090    2.0239   46.8461 H       1  ZINC000066361645    0.0600
     43 H43         0.0525    3.2078   46.4274 H       1  ZINC000066361645    0.0700
     44 H44        -1.0513    1.0510   44.5708 H       1  ZINC000066361645    0.0600
     45 H45        -1.4468    2.7849   44.4982 H       1  ZINC000066361645    0.0700
     46 H46         0.3142    2.2042   42.8522 H       1  ZINC000066361645    0.0600
     47 H47         0.9421    3.3130   44.0950 H       1  ZINC000066361645    0.0600
     48 H48         1.2745    0.2789   44.0848 H       1  ZINC000066361645    0.0600
     49 H49         2.5361    1.4627   43.6660 H       1  ZINC000066361645    0.0700
     50 H50         2.3785    2.4356   45.9414 H       1  ZINC000066361645    0.0700
     51 H51         2.7740    0.7016   46.0139 H       1  ZINC000066361645    0.0700
     52 H52        -5.9771   -1.0989   49.9843 H       1  ZINC000066361645    0.1300
     53 H53        -5.6318   -0.7209   51.6921 H       1  ZINC000066361645    0.0800
     54 H54        -6.4433    1.3075   49.5494 H       1  ZINC000066361645    0.0800
     55 H55        -7.5031    0.6824   50.8397 H       1  ZINC000066361645    0.1200
@<TRIPOS>BOND
     1     1     2    1
     2     1    29    1
     3     1    30    1
     4     1    31    1
     5     2     3    1
     6     3     8   ar
     7     3     4   ar
     8     4     5   ar
     9     4    32    1
    10     5    28    1
    11     5     6   ar
    12     6     7   ar
    13     6    25    1
    14     7     8   ar
    15     7    33    1
    16     8     9    1
    17     9    10   am
    18     9    34    1
    19    10    11    2
    20    10    12    1
    21    12    13    1
    22    12    35    1
    23    12    36    1
    24    13    14    1
    25    13    15    1
    26    13    16    1
    27    15    37    1
    28    15    38    1
    29    15    39    1
    30    16    17   am
    31    16    40    1
    32    17    18    2
    33    17    19    1
    34    19    24    1
    35    19    20    1
    36    19    41    1
    37    20    21    1
    38    20    42    1
    39    20    43    1
    40    21    22    1
    41    21    44    1
    42    21    45    1
    43    22    23    1
    44    22    46    1
    45    22    47    1
    46    23    24    1
    47    23    48    1
    48    23    49    1
    49    24    50    1
    50    24    51    1
    51    25    26    1
    52    26    27    1
    53    26    52    1
    54    26    53    1
    55    27    28    1
    56    27    54    1
    57    27    55    1
@<TRIPOS>SUBSTRUCTURE
     1 ZINC000066361645        1 TEMP              0 ****  ****    0 ROOT


##########                                Name:    ZINC001060578637
##########                DOCK_Rotatable_Bonds:                  10
##########                         Heavy_Atoms:                  25
##########                    Molecular_Weight:             345.401
##########                DOCK_Rotatable_Bonds:                  10
##########                       Formal_Charge:          -0.0400001
##########                     HBond_Acceptors:                   8
##########                        HBond_Donors:                   3
##########                         Heavy_Atoms:                  25
##########                          Grid_Score:          -32.142025
##########                     Grid_vdw_energy:          -31.200193
##########                      Grid_es_energy:           -0.941830
##########           Internal_energy_repulsive:           10.453963

@<TRIPOS>MOLECULE
ZINC001060578637
 48 49 1 0 0
SMALL
USER_CHARGES


@<TRIPOS>ATOM
      1 C1          1.0522    4.1515   46.3076 C.3     1  ZINC001060578637   -0.1500
      2 C2         -0.3284    3.6394   45.8924 C.3     1  ZINC001060578637   -0.1300
      3 C3         -0.2220    2.1734   45.4676 C.3     1  ZINC001060578637    0.0700
      4 H4          0.6067    2.0567   44.7693 H       1  ZINC001060578637    0.0900
      5 O5         -1.4385    1.7716   44.8345 O.3     1  ZINC001060578637   -0.3600
      6 C6         -1.4588    0.4006   44.4315 C.3     1  ZINC001060578637    0.0300
      7 C7          0.0196    1.3146   46.6821 C.2     1  ZINC001060578637    0.5000
      8 O8          0.9112    0.4926   46.6759 O.2     1  ZINC001060578637   -0.5200
      9 N9         -0.7553    1.4602   47.7752 N.am    1  ZINC001060578637   -0.7300
     10 C10        -0.5194    0.6265   48.9566 C.3     1  ZINC001060578637    0.1600
     11 C11        -0.8093    1.4253   50.2011 C.ar    1  ZINC001060578637   -0.1100
     12 C12        -2.1166    1.6958   50.5599 C.ar    1  ZINC001060578637   -0.0900
     13 C13        -2.3826    2.4285   51.7016 C.ar    1  ZINC001060578637   -0.1100
     14 C14        -1.3412    2.8903   52.4846 C.ar    1  ZINC001060578637   -0.0900
     15 C15        -1.6310    3.6895   53.7290 C.3     1  ZINC001060578637    0.1800
     16 H16        -2.6924    3.6187   53.9671 H       1  ZINC001060578637    0.1000
     17 C17        -1.2579    5.1543   53.4928 C.3     1  ZINC001060578637   -0.1600
     18 N18        -0.8438    3.1588   54.8447 N.am    1  ZINC001060578637   -0.7000
     19 C19        -1.3180    3.2415   56.1036 C.2     1  ZINC001060578637    0.6100
     20 O20        -2.3986    3.7580   56.3134 O.2     1  ZINC001060578637   -0.5300
     21 C21        -0.5264    2.7058   57.2263 C.2     1  ZINC001060578637    0.1200
     22 N22         0.7570    2.4156   57.2115 N.2     1  ZINC001060578637   -0.2400
     23 N23         1.1090    1.9717   58.3658 N.2     1  ZINC001060578637   -0.2900
     24 C24         0.0762    1.9554   59.1727 C.2     1  ZINC001060578637    0.1900
     25 N25        -0.9861    2.4208   58.4862 N.pl3   1  ZINC001060578637   -0.5500
     26 C26        -0.0340    2.6186   52.1266 C.ar    1  ZINC001060578637   -0.1100
     27 C27         0.2319    1.8826   50.9871 C.ar    1  ZINC001060578637   -0.0900
     28 H28         0.9711    5.1865   46.6397 H       1  ZINC001060578637    0.0600
     29 H29         1.4376    3.5379   47.1218 H       1  ZINC001060578637    0.0500
     30 H30         1.7316    4.0951   45.4571 H       1  ZINC001060578637    0.0600
     31 H31        -1.0158    3.7248   46.7339 H       1  ZINC001060578637    0.0800
     32 H32        -0.7004    4.2335   45.0576 H       1  ZINC001060578637    0.0800
     33 H33        -2.4418    0.1544   44.0301 H       1  ZINC001060578637    0.0900
     34 H34        -0.7016    0.2361   43.6649 H       1  ZINC001060578637    0.0500
     35 H35        -1.2484   -0.2341   45.2923 H       1  ZINC001060578637    0.0400
     36 H36        -1.4693    2.1168   47.7797 H       1  ZINC001060578637    0.4000
     37 H37        -1.1737   -0.2445   48.9232 H       1  ZINC001060578637    0.0800
     38 H38         0.5204    0.2996   48.9688 H       1  ZINC001060578637    0.0800
     39 H39        -2.9302    1.3349   49.9482 H       1  ZINC001060578637    0.1300
     40 H40        -3.4039    2.6404   51.9815 H       1  ZINC001060578637    0.1300
     41 H41        -0.1966    5.2250   53.2545 H       1  ZINC001060578637    0.0600
     42 H42        -1.8437    5.5492   52.6626 H       1  ZINC001060578637    0.0700
     43 H43        -1.4676    5.7323   54.3928 H       1  ZINC001060578637    0.0700
     44 H44         0.0188    2.7479   54.6774 H       1  ZINC001060578637    0.4100
     45 H45         0.0773    1.6311   60.2029 H       1  ZINC001060578637    0.2300
     46 H46        -1.8925    2.5271   58.8148 H       1  ZINC001060578637    0.4400
     47 H47         0.7796    2.9791   52.7386 H       1  ZINC001060578637    0.1300
     48 H48         1.2532    1.6704   50.7073 H       1  ZINC001060578637    0.1300
@<TRIPOS>BOND
     1     1     2    1
     2     1    28    1
     3     1    29    1
     4     1    30    1
     5     2     3    1
     6     2    31    1
     7     2    32    1
     8     3     4    1
     9     3     5    1
    10     3     7    1
    11     5     6    1
    12     6    33    1
    13     6    34    1
    14     6    35    1
    15     7     8    2
    16     7     9   am
    17     9    10    1
    18     9    36    1
    19    10    11    1
    20    10    37    1
    21    10    38    1
    22    11    27   ar
    23    11    12   ar
    24    12    13   ar
    25    12    39    1
    26    13    14   ar
    27    13    40    1
    28    14    15    1
    29    14    26   ar
    30    15    16    1
    31    15    17    1
    32    15    18    1
    33    17    41    1
    34    17    42    1
    35    17    43    1
    36    18    19   am
    37    18    44    1
    38    19    20    2
    39    19    21    1
    40    21    25    1
    41    21    22    2
    42    22    23    1
    43    23    24    2
    44    24    25    1
    45    24    45    1
    46    25    46    1
    47    26    27   ar
    48    26    47    1
    49    27    48    1
@<TRIPOS>SUBSTRUCTURE
     1 ZINC001060578637        1 TEMP              0 ****  ****    0 ROOT


##########                                Name:    ZINC001053433946
##########                DOCK_Rotatable_Bonds:                   6
##########                         Heavy_Atoms:                  24
##########                    Molecular_Weight:             337.419
##########                DOCK_Rotatable_Bonds:                   6
##########                       Formal_Charge:               -0.02
##########                     HBond_Acceptors:                   7
##########                        HBond_Donors:                   2
##########                         Heavy_Atoms:                  24
##########                          Grid_Score:          -32.141998
##########                     Grid_vdw_energy:          -32.341892
##########                      Grid_es_energy:            0.199896
##########           Internal_energy_repulsive:           15.861253

@<TRIPOS>MOLECULE
ZINC001053433946
 51 54 1 0 0
SMALL
USER_CHARGES


@<TRIPOS>ATOM
      1 N1          0.7032    0.8959   44.8272 N.am    1  ZINC001053433946   -0.8300
      2 C2         -0.1288    1.3785   45.7713 C.2     1  ZINC001053433946    0.5600
      3 O3         -0.5357    0.6495   46.6511 O.2     1  ZINC001053433946   -0.5500
      4 C4         -0.5534    2.8239   45.7340 C.3     1  ZINC001053433946   -0.1600
      5 H5         -1.5913    3.0020   45.4528 H       1  ZINC001053433946    0.1400
      6 C6          0.4860    3.8543   45.2880 C.3     1  ZINC001053433946   -0.1300
      7 C7          0.0730    3.7709   46.7596 C.3     1  ZINC001053433946   -0.1700
      8 H8         -0.5526    4.5721   47.1529 H       1  ZINC001053433946    0.1400
      9 C9          1.0679    3.1875   47.7295 C.2     1  ZINC001053433946    0.5400
     10 O10         2.1633    2.8419   47.3403 O.2     1  ZINC001053433946   -0.5200
     11 N11         0.7403    3.0499   49.0297 N.am    1  ZINC001053433946   -0.6100
     12 C12         1.6935    2.4833   49.9967 C.3     1  ZINC001053433946    0.0700
     13 C13         1.0057    1.3434   50.7551 C.3     1  ZINC001053433946    0.0500
     14 O14        -0.2134    1.8243   51.3300 O.3     1  ZINC001053433946   -0.3400
     15 C15        -1.1473    2.3212   50.3754 C.3     1  ZINC001053433946    0.0800
     16 C16        -1.8294    1.2234   49.5481 C.3     1  ZINC001053433946   -0.0100
     17 N17        -2.8763    1.2281   50.5949 N.3     1  ZINC001053433946   -0.4700
     18 C18        -4.2171    1.1565   49.9989 C.3     1  ZINC001053433946    0.0200
     19 C19        -5.2680    1.1187   51.1103 C.3     1  ZINC001053433946   -0.1200
     20 H20        -4.8399    0.6585   52.0008 H       1  ZINC001053433946    0.0800
     21 C21        -5.7183    2.5457   51.4376 C.3     1  ZINC001053433946   -0.1200
     22 C22        -6.8250    2.4901   52.4952 C.3     1  ZINC001053433946   -0.1600
     23 C23        -7.9744    1.6233   51.9746 C.3     1  ZINC001053433946    0.0600
     24 O24        -7.4813    0.3193   51.6603 O.3     1  ZINC001053433946   -0.3800
     25 C25        -6.4769    0.3034   50.6438 C.3     1  ZINC001053433946    0.0700
     26 C26        -2.5329    2.6205   50.9626 C.3     1  ZINC001053433946    0.0200
     27 C27        -0.5815    3.4677   49.5288 C.3     1  ZINC001053433946    0.1000
     28 H28         0.9755   -0.0348   44.8506 H       1  ZINC001053433946    0.4000
     29 H29         1.0264    1.4782   44.1220 H       1  ZINC001053433946    0.4000
     30 H30         1.4769    3.4866   45.0215 H       1  ZINC001053433946    0.1100
     31 H31         0.1318    4.7103   44.7137 H       1  ZINC001053433946    0.1200
     32 H32         2.5648    2.0970   49.4676 H       1  ZINC001053433946    0.1000
     33 H33         2.0033    3.2561   50.7002 H       1  ZINC001053433946    0.0800
     34 H34         0.7860    0.5283   50.0656 H       1  ZINC001053433946    0.0600
     35 H35         1.6638    0.9837   51.5461 H       1  ZINC001053433946    0.1100
     36 H36        -2.1808    1.5617   48.5735 H       1  ZINC001053433946    0.0800
     37 H37        -1.2620    0.2940   49.4983 H       1  ZINC001053433946    0.0900
     38 H38        -4.3831    2.0323   49.3715 H       1  ZINC001053433946    0.0500
     39 H39        -4.2972    0.2545   49.3922 H       1  ZINC001053433946    0.0800
     40 H40        -4.8730    3.1152   51.8241 H       1  ZINC001053433946    0.0700
     41 H41        -6.0998    3.0237   50.5354 H       1  ZINC001053433946    0.0700
     42 H42        -6.4294    2.0573   53.4140 H       1  ZINC001053433946    0.0700
     43 H43        -7.1899    3.4979   52.6939 H       1  ZINC001053433946    0.0700
     44 H44        -8.7463    1.5451   52.7402 H       1  ZINC001053433946    0.0900
     45 H45        -8.3959    2.0783   51.0783 H       1  ZINC001053433946    0.0500
     46 H46        -6.8778    0.7412   49.7296 H       1  ZINC001053433946    0.0500
     47 H47        -6.1711   -0.7249   50.4510 H       1  ZINC001053433946    0.1000
     48 H48        -2.5250    2.8022   52.0373 H       1  ZINC001053433946    0.1000
     49 H49        -3.0927    3.3728   50.4068 H       1  ZINC001053433946    0.0900
     50 H50        -0.4843    4.3643   50.1410 H       1  ZINC001053433946    0.0800
     51 H51        -1.2449    3.6660   48.6869 H       1  ZINC001053433946    0.1000
@<TRIPOS>BOND
     1     1     2   am
     2     1    28    1
     3     1    29    1
     4     2     3    2
     5     2     4    1
     6     4     5    1
     7     4     7    1
     8     4     6    1
     9     6     7    1
    10     6    30    1
    11     6    31    1
    12     7     8    1
    13     7     9    1
    14     9    10    2
    15     9    11   am
    16    11    27    1
    17    11    12    1
    18    12    13    1
    19    12    32    1
    20    12    33    1
    21    13    14    1
    22    13    34    1
    23    13    35    1
    24    14    15    1
    25    15    26    1
    26    15    16    1
    27    15    27    1
    28    16    17    1
    29    16    36    1
    30    16    37    1
    31    17    18    1
    32    17    26    1
    33    18    19    1
    34    18    38    1
    35    18    39    1
    36    19    20    1
    37    19    25    1
    38    19    21    1
    39    21    22    1
    40    21    40    1
    41    21    41    1
    42    22    23    1
    43    22    42    1
    44    22    43    1
    45    23    24    1
    46    23    44    1
    47    23    45    1
    48    24    25    1
    49    25    46    1
    50    25    47    1
    51    26    48    1
    52    26    49    1
    53    27    50    1
    54    27    51    1
@<TRIPOS>SUBSTRUCTURE
     1 ZINC001053433946        1 TEMP              0 ****  ****    0 ROOT


##########                                Name:    ZINC000938043669
##########                DOCK_Rotatable_Bonds:                   7
##########                         Heavy_Atoms:                  27
##########                    Molecular_Weight:             372.439
##########                DOCK_Rotatable_Bonds:                   7
##########                       Formal_Charge:           0.0499999
##########                     HBond_Acceptors:                   6
##########                        HBond_Donors:                   1
##########                         Heavy_Atoms:                  27
##########                          Grid_Score:          -32.116402
##########                     Grid_vdw_energy:          -30.951059
##########                      Grid_es_energy:           -1.165342
##########           Internal_energy_repulsive:           15.413001

@<TRIPOS>MOLECULE
ZINC000938043669
 52 55 1 0 0
SMALL
USER_CHARGES


@<TRIPOS>ATOM
      1 O1         -7.8658    3.8857   52.6420 O.2     1  ZINC000938043669   -0.5000
      2 C2         -7.9532    2.7377   52.2606 C.2     1  ZINC000938043669    0.5300
      3 C3         -9.2830    2.0297   52.3005 C.3     1  ZINC000938043669    0.0500
      4 O4         -9.4330    1.3686   53.5585 O.3     1  ZINC000938043669   -0.2800
      5 C5        -10.6139    0.7344   53.7855 C.ar    1  ZINC000938043669    0.0900
      6 C6        -11.5934    0.7186   52.8048 C.ar    1  ZINC000938043669   -0.1800
      7 C7        -12.7931    0.0727   53.0374 C.ar    1  ZINC000938043669   -0.0900
      8 C8        -13.0178   -0.5576   54.2469 C.ar    1  ZINC000938043669   -0.1300
      9 C9        -12.0435   -0.5439   55.2283 C.ar    1  ZINC000938043669   -0.1100
     10 C10       -10.8391    0.0959   54.9990 C.ar    1  ZINC000938043669    0.0800
     11 F11        -9.8870    0.1093   55.9573 F       1  ZINC000938043669   -0.1300
     12 N12        -6.8624    2.0970   51.7957 N.am    1  ZINC000938043669   -0.6200
     13 C13        -6.8276    0.7135   51.2999 C.3     1  ZINC000938043669    0.1000
     14 C14        -5.3800    0.4240   50.8505 C.3     1  ZINC000938043669   -0.1400
     15 C15        -4.8063    1.8423   50.5916 C.3     1  ZINC000938043669    0.1300
     16 H16        -5.0853    2.2017   49.6011 H       1  ZINC000938043669    0.1100
     17 N17        -3.3515    1.8596   50.7628 N.am    1  ZINC000938043669   -0.7200
     18 C18        -2.5452    1.7299   49.6906 C.2     1  ZINC000938043669    0.5200
     19 O19        -3.0241    1.6004   48.5839 O.2     1  ZINC000938043669   -0.5200
     20 C20        -1.0487    1.7459   49.8668 C.3     1  ZINC000938043669   -0.1000
     21 H21        -0.7798    1.1541   50.7417 H       1  ZINC000938043669    0.1000
     22 C22        -0.5737    3.1877   50.0611 C.3     1  ZINC000938043669   -0.1100
     23 C23         0.4126    3.5578   48.9459 C.3     1  ZINC000938043669   -0.0600
     24 H24         0.7245    4.5984   49.0355 H       1  ZINC000938043669    0.0800
     25 C25        -0.2785    3.3144   47.6124 C.2     1  ZINC000938043669   -0.1800
     26 C26        -0.6916    2.0606   47.4435 C.2     1  ZINC000938043669   -0.1300
     27 C27        -0.3809    1.1493   48.6213 C.3     1  ZINC000938043669   -0.0400
     28 H28        -0.7341    0.1360   48.4296 H       1  ZINC000938043669    0.0900
     29 C29         1.1390    1.1648   48.8345 C.3     1  ZINC000938043669   -0.1200
     30 C30         1.6221    2.6173   49.0399 C.3     1  ZINC000938043669   -0.1100
     31 C31        -5.5077    2.6697   51.6944 C.3     1  ZINC000938043669    0.1000
     32 H32       -10.0856    2.7564   52.1740 H       1  ZINC000938043669    0.1000
     33 H33        -9.3279    1.2952   51.4965 H       1  ZINC000938043669    0.1000
     34 H34       -11.4193    1.2109   51.8594 H       1  ZINC000938043669    0.1400
     35 H35       -13.5563    0.0609   52.2733 H       1  ZINC000938043669    0.1300
     36 H36       -13.9562   -1.0614   54.4259 H       1  ZINC000938043669    0.1400
     37 H37       -12.2217   -1.0367   56.1726 H       1  ZINC000938043669    0.1500
     38 H38        -7.1126    0.0267   52.0970 H       1  ZINC000938043669    0.0800
     39 H39        -7.5069    0.6055   50.4543 H       1  ZINC000938043669    0.0800
     40 H40        -4.8236   -0.0784   51.6418 H       1  ZINC000938043669    0.0900
     41 H41        -5.3713   -0.1684   49.9356 H       1  ZINC000938043669    0.1000
     42 H42        -2.9685    1.9645   51.6478 H       1  ZINC000938043669    0.4000
     43 H43        -1.4307    3.8602   50.0257 H       1  ZINC000938043669    0.0700
     44 H44        -0.0795    3.2800   51.0282 H       1  ZINC000938043669    0.0800
     45 H45        -0.4207    4.0874   46.8717 H       1  ZINC000938043669    0.1200
     46 H46        -1.2006    1.7218   46.5533 H       1  ZINC000938043669    0.1200
     47 H47         1.3876    0.5785   49.7191 H       1  ZINC000938043669    0.0700
     48 H48         1.6323    0.7341   47.9632 H       1  ZINC000938043669    0.0700
     49 H49         2.3412    2.8742   48.2621 H       1  ZINC000938043669    0.0700
     50 H50         2.0966    2.7074   50.0169 H       1  ZINC000938043669    0.0700
     51 H51        -5.5567    3.7201   51.4072 H       1  ZINC000938043669    0.0900
     52 H52        -4.9828    2.5591   52.6433 H       1  ZINC000938043669    0.0700
@<TRIPOS>BOND
     1     1     2    2
     2     2     3    1
     3     2    12   am
     4     3     4    1
     5     3    32    1
     6     3    33    1
     7     4     5    1
     8     5    10   ar
     9     5     6   ar
    10     6     7   ar
    11     6    34    1
    12     7     8   ar
    13     7    35    1
    14     8     9   ar
    15     8    36    1
    16     9    10   ar
    17     9    37    1
    18    10    11    1
    19    12    31    1
    20    12    13    1
    21    13    14    1
    22    13    38    1
    23    13    39    1
    24    14    15    1
    25    14    40    1
    26    14    41    1
    27    15    16    1
    28    15    17    1
    29    15    31    1
    30    17    18   am
    31    17    42    1
    32    18    19    2
    33    18    20    1
    34    20    21    1
    35    20    27    1
    36    20    22    1
    37    22    23    1
    38    22    43    1
    39    22    44    1
    40    23    24    1
    41    23    30    1
    42    23    25    1
    43    25    26    2
    44    25    45    1
    45    26    27    1
    46    26    46    1
    47    27    28    1
    48    27    29    1
    49    29    30    1
    50    29    47    1
    51    29    48    1
    52    30    49    1
    53    30    50    1
    54    31    51    1
    55    31    52    1
@<TRIPOS>SUBSTRUCTURE
     1 ZINC000938043669        1 TEMP              0 ****  ****    0 ROOT


##########                                Name:    ZINC000440379747
##########                DOCK_Rotatable_Bonds:                   8
##########                         Heavy_Atoms:                  27
##########                    Molecular_Weight:             394.452
##########                DOCK_Rotatable_Bonds:                   8
##########                       Formal_Charge:           0.0199995
##########                     HBond_Acceptors:                  10
##########                        HBond_Donors:                   3
##########                         Heavy_Atoms:                  27
##########                          Grid_Score:          -32.104122
##########                     Grid_vdw_energy:          -27.853395
##########                      Grid_es_energy:           -4.250726
##########           Internal_energy_repulsive:           19.992741

@<TRIPOS>MOLECULE
ZINC000440379747
 49 51 1 0 0
SMALL
USER_CHARGES


@<TRIPOS>ATOM
      1 C1         -7.1345    2.5544   51.1637 C.3     1  ZINC000440379747   -0.1800
      2 C2         -7.1702    2.5560   52.6703 C.2     1  ZINC000440379747    0.5200
      3 O3         -6.2770    3.0855   53.2974 O.2     1  ZINC000440379747   -0.5200
      4 N4         -8.1943    1.9691   53.3208 N.am    1  ZINC000440379747   -0.5500
      5 C5         -9.3265    1.2998   52.6749 C.3     1  ZINC000440379747    0.1100
      6 C6        -10.2117    0.8005   53.8284 C.3     1  ZINC000440379747   -0.0900
      7 C7         -9.4888    1.2399   55.0818 C.ar    1  ZINC000440379747   -0.1100
      8 C8         -9.8075    1.0732   56.4147 C.ar    1  ZINC000440379747   -0.0700
      9 C9         -8.9676    1.5769   57.4000 C.ar    1  ZINC000440379747    0.1200
     10 N10        -9.2888    1.4086   58.7504 N.am    1  ZINC000440379747   -0.6400
     11 C11        -8.4874    0.6741   59.5472 C.2     1  ZINC000440379747    0.5100
     12 O12        -7.4869    0.1586   59.0923 O.2     1  ZINC000440379747   -0.4900
     13 C13        -8.8303    0.4944   60.9894 C.2     1  ZINC000440379747    0.5200
     14 O14        -8.9724   -0.6216   61.4449 O.2     1  ZINC000440379747   -0.5100
     15 N15        -8.9820    1.5714   61.7853 N.am    1  ZINC000440379747   -0.5800
     16 C16        -8.8388    2.9773   61.3651 C.3     1  ZINC000440379747    0.1000
     17 C17        -9.6813    3.7836   62.3847 C.3     1  ZINC000440379747   -0.1300
     18 C18        -9.4129    3.0020   63.6979 C.3     1  ZINC000440379747   -0.1600
     19 C19        -9.3238    1.5391   63.2148 C.3     1  ZINC000440379747    0.1500
     20 H20       -10.2826    1.0415   63.3606 H       1  ZINC000440379747    0.1000
     21 C21        -8.2313    0.8006   63.9907 C.3     1  ZINC000440379747   -0.6500
     22 S22        -8.9949   -0.4028   65.1129 S.o2    1  ZINC000440379747    2.6200
     23 N23       -10.0385    0.4950   66.0333 N.am    1  ZINC000440379747   -1.2500
     24 O24        -9.8383   -1.2911   64.3925 O.2     1  ZINC000440379747   -0.9500
     25 O25        -8.0395   -0.8927   66.0436 O.2     1  ZINC000440379747   -0.9500
     26 C26        -7.8068    2.2483   57.0369 C.ar    1  ZINC000440379747   -0.1000
     27 C27        -7.4907    2.4134   55.7061 C.ar    1  ZINC000440379747   -0.1400
     28 C28        -8.3290    1.9040   54.7124 C.ar    1  ZINC000440379747    0.1400
     29 H29        -6.2383    3.0713   50.8209 H       1  ZINC000440379747    0.1000
     30 H30        -7.1220    1.5263   50.8017 H       1  ZINC000440379747    0.1000
     31 H31        -8.0177    3.0643   50.7789 H       1  ZINC000440379747    0.1000
     32 H32        -9.8780    2.0052   52.0532 H       1  ZINC000440379747    0.0900
     33 H33        -8.9771    0.4593   52.0754 H       1  ZINC000440379747    0.0900
     34 H34       -11.1983    1.2613   53.7773 H       1  ZINC000440379747    0.0900
     35 H35       -10.2966   -0.2858   53.7995 H       1  ZINC000440379747    0.1000
     36 H36       -10.7112    0.5509   56.6917 H       1  ZINC000440379747    0.1400
     37 H37       -10.0883    1.8204   59.1138 H       1  ZINC000440379747    0.4200
     38 H38        -7.7934    3.2824   61.4111 H       1  ZINC000440379747    0.0800
     39 H39        -9.2306    3.1136   60.3571 H       1  ZINC000440379747    0.1000
     40 H40        -9.3241    4.8106   62.4613 H       1  ZINC000440379747    0.1000
     41 H41       -10.7395    3.7582   62.1242 H       1  ZINC000440379747    0.0800
     42 H42        -8.4741    3.3202   64.1510 H       1  ZINC000440379747    0.1000
     43 H43       -10.2408    3.1254   64.3962 H       1  ZINC000440379747    0.1000
     44 H44        -7.5771    0.2806   63.2909 H       1  ZINC000440379747    0.1500
     45 H45        -7.6485    1.5176   64.5688 H       1  ZINC000440379747    0.1400
     46 H46       -10.5722    0.0653   66.7200 H       1  ZINC000440379747    0.4100
     47 H47       -10.1164    1.4505   65.8857 H       1  ZINC000440379747    0.4200
     48 H48        -7.1511    2.6418   57.7994 H       1  ZINC000440379747    0.1400
     49 H49        -6.5871    2.9365   55.4300 H       1  ZINC000440379747    0.1500
@<TRIPOS>BOND
     1     1     2    1
     2     1    29    1
     3     1    30    1
     4     1    31    1
     5     2     3    2
     6     2     4   am
     7     4    28    1
     8     4     5    1
     9     5     6    1
    10     5    32    1
    11     5    33    1
    12     6     7    1
    13     6    34    1
    14     6    35    1
    15     7    28   ar
    16     7     8   ar
    17     8     9   ar
    18     8    36    1
    19     9    10    1
    20     9    26   ar
    21    10    11   am
    22    10    37    1
    23    11    12    2
    24    11    13    1
    25    13    14    2
    26    13    15   am
    27    15    19    1
    28    15    16    1
    29    16    17    1
    30    16    38    1
    31    16    39    1
    32    17    18    1
    33    17    40    1
    34    17    41    1
    35    18    19    1
    36    18    42    1
    37    18    43    1
    38    19    20    1
    39    19    21    1
    40    21    22    1
    41    21    44    1
    42    21    45    1
    43    22    23   am
    44    22    24    2
    45    22    25    2
    46    23    46    1
    47    23    47    1
    48    26    27   ar
    49    26    48    1
    50    27    28   ar
    51    27    49    1
@<TRIPOS>SUBSTRUCTURE
     1 ZINC000440379747        1 TEMP              0 ****  ****    0 ROOT


##########                                Name:    ZINC000437192871
##########                DOCK_Rotatable_Bonds:                   9
##########                         Heavy_Atoms:                  28
##########                    Molecular_Weight:             423.298
##########                DOCK_Rotatable_Bonds:                   9
##########                       Formal_Charge:         -8.9407e-08
##########                     HBond_Acceptors:                   9
##########                        HBond_Donors:                   1
##########                         Heavy_Atoms:                  28
##########                          Grid_Score:          -32.084480
##########                     Grid_vdw_energy:          -29.762028
##########                      Grid_es_energy:           -2.322454
##########           Internal_energy_repulsive:           16.416626

@<TRIPOS>MOLECULE
ZINC000437192871
 48 50 1 0 0
SMALL
USER_CHARGES


@<TRIPOS>ATOM
      1 C1          1.9653    2.0858   58.7475 C.3     1  ZINC000437192871   -0.1700
      2 C2          0.5721    1.9554   59.3665 C.3     1  ZINC000437192871    0.1300
      3 N3         -0.3482    2.8775   58.6965 N.pl3   1  ZINC000437192871   -0.3600
      4 C4         -1.2156    2.5585   57.7131 C.2     1  ZINC000437192871    0.0700
      5 C5         -1.8793    3.6857   57.3668 C.2     1  ZINC000437192871   -0.2700
      6 C6         -2.9457    3.7968   56.3079 C.3     1  ZINC000437192871    0.1900
      7 N7         -2.3249    4.1249   55.0221 N.am    1  ZINC000437192871   -0.6000
      8 C8         -1.1094    3.4268   54.5962 C.3     1  ZINC000437192871    0.1100
      9 C9          0.1145    4.2790   54.9379 C.3     1  ZINC000437192871    0.0600
     10 O10         1.2555    3.7754   54.2405 O.3     1  ZINC000437192871   -0.5600
     11 C11        -2.8721    5.0690   54.2311 C.2     1  ZINC000437192871    0.6000
     12 O12        -3.8813    5.6484   54.5845 O.2     1  ZINC000437192871   -0.5000
     13 C13        -2.2480    5.3989   52.9385 C.2     1  ZINC000437192871   -0.2200
     14 C14        -1.4264    6.4533   52.6293 C.2     1  ZINC000437192871    0.0100
     15 C15        -0.9647    7.5405   53.5654 C.3     1  ZINC000437192871   -0.0800
     16 O16        -1.1155    6.3275   51.3372 O.3     1  ZINC000437192871    0.1100
     17 N17        -1.6189    5.3633   50.8151 N.2     1  ZINC000437192871   -0.3200
     18 C18        -2.3466    4.6721   51.6553 C.2     1  ZINC000437192871    0.0800
     19 C19        -3.1119    3.4329   51.3775 C.ar    1  ZINC000437192871   -0.0200
     20 C20        -4.5021    3.4326   51.4760 C.ar    1  ZINC000437192871   -0.0700
     21 C21        -5.2098    2.2770   51.2159 C.ar    1  ZINC000437192871   -0.1000
     22 C22        -4.5418    1.1184   50.8575 C.ar    1  ZINC000437192871   -0.0100
     23 Cl23       -5.4391   -0.3316   50.5314 Cl      1  ZINC000437192871   -0.0500
     24 C24        -3.1611    1.1121   50.7580 C.ar    1  ZINC000437192871   -0.1100
     25 C25        -2.4433    2.2644   51.0108 C.ar    1  ZINC000437192871    0.0000
     26 Cl26       -0.7119    2.2559   50.8852 Cl      1  ZINC000437192871   -0.0300
     27 C27        -1.4010    4.7294   58.1658 C.2     1  ZINC000437192871    0.0600
     28 N28        -0.4875    4.2448   58.9674 N.2     1  ZINC000437192871   -0.2900
     29 H29         2.6500    1.3998   59.2461 H       1  ZINC000437192871    0.0800
     30 H30         1.9156    1.8423   57.6863 H       1  ZINC000437192871    0.0600
     31 H31         2.3227    3.1083   58.8693 H       1  ZINC000437192871    0.0700
     32 H32         0.2147    0.9328   59.2448 H       1  ZINC000437192871    0.1000
     33 H33         0.6218    2.1990   60.4278 H       1  ZINC000437192871    0.0900
     34 H34        -1.3550    1.5790   57.2800 H       1  ZINC000437192871    0.1600
     35 H35        -3.4748    2.8474   56.2241 H       1  ZINC000437192871    0.0900
     36 H36        -3.6499    4.5822   56.5824 H       1  ZINC000437192871    0.0800
     37 H37        -1.0408    2.4691   55.1122 H       1  ZINC000437192871    0.1000
     38 H38        -1.1456    3.2579   53.5199 H       1  ZINC000437192871    0.1000
     39 H39        -0.0671    5.3116   54.6395 H       1  ZINC000437192871    0.0600
     40 H40         0.2975    4.2380   56.0117 H       1  ZINC000437192871    0.0500
     41 H41         1.4994    2.8724   54.4859 H       1  ZINC000437192871    0.3800
     42 H42         0.0113    7.2780   53.9737 H       1  ZINC000437192871    0.1000
     43 H43        -0.8896    8.4814   53.0204 H       1  ZINC000437192871    0.0900
     44 H44        -1.6819    7.6481   54.3791 H       1  ZINC000437192871    0.0900
     45 H45        -5.0246    4.3354   51.7557 H       1  ZINC000437192871    0.1600
     46 H46        -6.2872    2.2761   51.2925 H       1  ZINC000437192871    0.1500
     47 H47        -2.6448    0.2058   50.4781 H       1  ZINC000437192871    0.1500
     48 H48        -1.7322    5.7567   58.1306 H       1  ZINC000437192871    0.1800
@<TRIPOS>BOND
     1     1     2    1
     2     1    29    1
     3     1    30    1
     4     1    31    1
     5     2     3    1
     6     2    32    1
     7     2    33    1
     8     3    28    1
     9     3     4    1
    10     4     5    2
    11     4    34    1
    12     5     6    1
    13     5    27    1
    14     6     7    1
    15     6    35    1
    16     6    36    1
    17     7     8    1
    18     7    11   am
    19     8     9    1
    20     8    37    1
    21     8    38    1
    22     9    10    1
    23     9    39    1
    24     9    40    1
    25    10    41    1
    26    11    12    2
    27    11    13    1
    28    13    18    1
    29    13    14    2
    30    14    15    1
    31    14    16    1
    32    15    42    1
    33    15    43    1
    34    15    44    1
    35    16    17    1
    36    17    18    2
    37    18    19    1
    38    19    25   ar
    39    19    20   ar
    40    20    21   ar
    41    20    45    1
    42    21    22   ar
    43    21    46    1
    44    22    23    1
    45    22    24   ar
    46    24    25   ar
    47    24    47    1
    48    25    26    1
    49    27    28    2
    50    27    48    1
@<TRIPOS>SUBSTRUCTURE
     1 ZINC000437192871        1 TEMP              0 ****  ****    0 ROOT


##########                                Name:    ZINC000171059239
##########                DOCK_Rotatable_Bonds:                   8
##########                         Heavy_Atoms:                  25
##########                    Molecular_Weight:              333.39
##########                DOCK_Rotatable_Bonds:                   8
##########                       Formal_Charge:         1.10269e-06
##########                     HBond_Acceptors:                   5
##########                        HBond_Donors:                   4
##########                         Heavy_Atoms:                  25
##########                          Grid_Score:          -32.078110
##########                     Grid_vdw_energy:          -30.696205
##########                      Grid_es_energy:           -1.381903
##########           Internal_energy_repulsive:            7.556179

@<TRIPOS>MOLECULE
ZINC000171059239
 44 46 1 0 0
SMALL
USER_CHARGES


@<TRIPOS>ATOM
      1 N1         -7.3205    5.4519   48.2108 N.am    1  ZINC000171059239   -0.8500
      2 C2         -8.1986    5.3490   49.2280 C.2     1  ZINC000171059239    0.5600
      3 O3         -8.9960    6.2426   49.4353 O.2     1  ZINC000171059239   -0.5400
      4 C4         -8.1917    4.1491   50.0920 C.ar    1  ZINC000171059239   -0.1400
      5 C5         -9.1561    3.9981   51.0893 C.ar    1  ZINC000171059239   -0.0900
      6 C6         -9.1443    2.8758   51.8918 C.ar    1  ZINC000171059239   -0.1200
      7 C7         -8.1789    1.9018   51.7098 C.ar    1  ZINC000171059239   -0.0800
      8 C8         -7.2194    2.0456   50.7231 C.ar    1  ZINC000171059239   -0.0900
      9 C9         -6.1714    0.9797   50.5324 C.3     1  ZINC000171059239   -0.0900
     10 C10        -5.0775    1.1451   51.5892 C.3     1  ZINC000171059239    0.1400
     11 N11        -4.0259    2.0232   51.0704 N.am    1  ZINC000171059239   -0.7400
     12 C12        -3.0535    1.5189   50.2852 C.2     1  ZINC000171059239    0.7000
     13 O13        -3.0498    0.3355   50.0063 O.2     1  ZINC000171059239   -0.5700
     14 N14        -2.0850    2.3265   49.8091 N.am    1  ZINC000171059239   -0.6800
     15 C15        -1.0776    1.8040   48.9957 C.ar    1  ZINC000171059239    0.1700
     16 C16         0.1953    1.5188   49.5336 C.ar    1  ZINC000171059239   -0.0600
     17 C17         0.4820    1.7498   50.8881 C.ar    1  ZINC000171059239   -0.1100
     18 C18         1.7213    1.4626   51.3733 C.ar    1  ZINC000171059239   -0.1100
     19 C19         2.7127    0.9416   50.5441 C.ar    1  ZINC000171059239   -0.1200
     20 C20         2.4704    0.7048   49.2259 C.ar    1  ZINC000171059239   -0.1000
     21 C21         1.2023    0.9887   48.6897 C.ar    1  ZINC000171059239   -0.0400
     22 C22         0.9165    0.7565   47.3337 C.ar    1  ZINC000171059239   -0.1200
     23 C23        -0.3207    1.0405   46.8413 C.ar    1  ZINC000171059239   -0.0900
     24 C24        -1.3193    1.5569   47.6616 C.ar    1  ZINC000171059239   -0.1200
     25 C25        -7.2238    3.1598   49.9098 C.ar    1  ZINC000171059239   -0.0500
     26 H26        -7.3258    6.2385   47.6433 H       1  ZINC000171059239    0.4100
     27 H27        -6.6807    4.7411   48.0486 H       1  ZINC000171059239    0.4000
     28 H28        -9.9098    4.7582   51.2328 H       1  ZINC000171059239    0.1300
     29 H29        -9.8901    2.7576   52.6640 H       1  ZINC000171059239    0.1300
     30 H30        -8.1739    1.0253   52.3409 H       1  ZINC000171059239    0.1300
     31 H31        -6.6303   -0.0037   50.6351 H       1  ZINC000171059239    0.0800
     32 H32        -5.7337    1.0743   49.5386 H       1  ZINC000171059239    0.0800
     33 H33        -5.5060    1.5844   52.4900 H       1  ZINC000171059239    0.0700
     34 H34        -4.6521    0.1702   51.8274 H       1  ZINC000171059239    0.0700
     35 H35        -4.0295    2.9676   51.2919 H       1  ZINC000171059239    0.4000
     36 H36        -2.0880    3.2706   50.0317 H       1  ZINC000171059239    0.4100
     37 H37        -0.2765    2.1539   51.5422 H       1  ZINC000171059239    0.1200
     38 H38         1.9392    1.6412   52.4159 H       1  ZINC000171059239    0.1200
     39 H39         3.6879    0.7229   50.9533 H       1  ZINC000171059239    0.1200
     40 H40         3.2485    0.3012   48.5949 H       1  ZINC000171059239    0.1300
     41 H41         1.6779    0.3533   46.6824 H       1  ZINC000171059239    0.1300
     42 H42        -0.5317    0.8588   45.7978 H       1  ZINC000171059239    0.1300
     43 H43        -2.2924    1.7734   47.2464 H       1  ZINC000171059239    0.1400
     44 H44        -6.4746    3.2707   49.1400 H       1  ZINC000171059239    0.1400
@<TRIPOS>BOND
     1     1     2   am
     2     1    26    1
     3     1    27    1
     4     2     3    2
     5     2     4    1
     6     4    25   ar
     7     4     5   ar
     8     5     6   ar
     9     5    28    1
    10     6     7   ar
    11     6    29    1
    12     7     8   ar
    13     7    30    1
    14     8     9    1
    15     8    25   ar
    16     9    10    1
    17     9    31    1
    18     9    32    1
    19    10    11    1
    20    10    33    1
    21    10    34    1
    22    11    12   am
    23    11    35    1
    24    12    13    2
    25    12    14   am
    26    14    15    1
    27    14    36    1
    28    15    24   ar
    29    15    16   ar
    30    16    21   ar
    31    16    17   ar
    32    17    18   ar
    33    17    37    1
    34    18    19   ar
    35    18    38    1
    36    19    20   ar
    37    19    39    1
    38    20    21   ar
    39    20    40    1
    40    21    22   ar
    41    22    23   ar
    42    22    41    1
    43    23    24   ar
    44    23    42    1
    45    24    43    1
    46    25    44    1
@<TRIPOS>SUBSTRUCTURE
     1 ZINC000171059239        1 TEMP              0 ****  ****    0 ROOT


##########                                Name:    ZINC000442864105
##########                DOCK_Rotatable_Bonds:                   7
##########                         Heavy_Atoms:                  30
##########                    Molecular_Weight:              414.39
##########                DOCK_Rotatable_Bonds:                   7
##########                       Formal_Charge:           0.0200001
##########                     HBond_Acceptors:                  10
##########                        HBond_Donors:                   2
##########                         Heavy_Atoms:                  30
##########                          Grid_Score:          -32.071781
##########                     Grid_vdw_energy:          -32.372429
##########                      Grid_es_energy:            0.300646
##########           Internal_energy_repulsive:           17.106831

@<TRIPOS>MOLECULE
ZINC000442864105
 47 50 1 0 0
SMALL
USER_CHARGES


@<TRIPOS>ATOM
      1 C1         -6.1433    0.0414   50.2909 C.3     1  ZINC000442864105    0.0800
      2 N2         -6.3207    1.0643   51.3247 N.pl3   1  ZINC000442864105   -0.4900
      3 C3         -7.4938    1.3223   51.9837 C.2     1  ZINC000442864105    0.0300
      4 C4         -7.3137    2.3177   52.8652 C.2     1  ZINC000442864105   -0.1900
      5 C5         -5.9114    2.7322   52.7636 C.ar    1  ZINC000442864105   -0.1600
      6 C6         -5.1382    3.6992   53.4089 C.ar    1  ZINC000442864105   -0.0200
      7 C7         -3.8203    3.8454   53.0824 C.ar    1  ZINC000442864105   -0.2100
      8 C8         -3.2397    3.0350   52.1080 C.ar    1  ZINC000442864105    0.2400
      9 N9         -1.8892    3.1972   51.7853 N.pl3   1  ZINC000442864105   -0.7400
     10 C10        -1.4735    4.2885   50.9007 C.3     1  ZINC000442864105    0.1100
     11 C11        -0.8267    3.7156   49.6660 C.2     1  ZINC000442864105    0.5100
     12 O12        -0.4645    4.4527   48.7734 O.2     1  ZINC000442864105   -0.5100
     13 N13        -0.6506    2.3841   49.5535 N.am    1  ZINC000442864105   -0.6600
     14 C14        -0.0499    1.8520   48.4066 C.ar    1  ZINC000442864105    0.1600
     15 C15        -0.7057    1.9127   47.1859 C.ar    1  ZINC000442864105   -0.0700
     16 C16        -0.1106    1.3867   46.0549 C.ar    1  ZINC000442864105   -0.1600
     17 C17        -0.8249    1.4539   44.7297 C.3     1  ZINC000442864105    0.5100
     18 F18        -1.6817    2.5597   44.7173 F       1  ZINC000442864105   -0.1700
     19 F19         0.1137    1.5797   43.6999 F       1  ZINC000442864105   -0.1700
     20 F20        -1.5697    0.2847   44.5415 F       1  ZINC000442864105   -0.1700
     21 C21         1.1387    0.7991   46.1357 C.ar    1  ZINC000442864105   -0.0600
     22 C22         1.7991    0.7337   47.3480 C.ar    1  ZINC000442864105   -0.1100
     23 C23         1.2122    1.2641   48.4869 C.ar    1  ZINC000442864105    0.1500
     24 N24         1.8806    1.1988   49.7182 N.pl3   1  ZINC000442864105   -0.3300
     25 C25         3.1020    0.6792   49.9475 C.2     1  ZINC000442864105    0.2800
     26 N26         3.3654    0.8105   51.2227 N.2     1  ZINC000442864105   -0.5300
     27 C27         2.3434    1.4055   51.8366 C.2     1  ZINC000442864105    0.2300
     28 N28         1.4125    1.6678   50.9565 N.2     1  ZINC000442864105   -0.3400
     29 C29        -3.9902    2.0704   51.4579 C.ar    1  ZINC000442864105   -0.2100
     30 C30        -5.3319    1.9059   51.7831 C.ar    1  ZINC000442864105    0.1500
     31 H31        -5.8496   -0.8991   50.7571 H       1  ZINC000442864105    0.0700
     32 H32        -7.0805   -0.0972   49.7522 H       1  ZINC000442864105    0.0800
     33 H33        -5.3675    0.3595   49.5945 H       1  ZINC000442864105    0.0800
     34 H34        -8.4254    0.8016   51.8183 H       1  ZINC000442864105    0.1700
     35 H35        -8.0606    2.7349   53.5244 H       1  ZINC000442864105    0.1400
     36 H36        -5.5817    4.3309   54.1645 H       1  ZINC000442864105    0.1200
     37 H37        -3.2238    4.5942   53.5822 H       1  ZINC000442864105    0.1200
     38 H38        -1.2275    2.5873   52.1471 H       1  ZINC000442864105    0.4100
     39 H39        -2.3455    4.8765   50.6145 H       1  ZINC000442864105    0.1000
     40 H40        -0.7599    4.9268   51.4217 H       1  ZINC000442864105    0.1000
     41 H41        -0.9402    1.7946   50.2673 H       1  ZINC000442864105    0.4300
     42 H42        -1.6814    2.3709   47.1193 H       1  ZINC000442864105    0.1700
     43 H43         1.5994    0.3898   45.2488 H       1  ZINC000442864105    0.1500
     44 H44         2.7745    0.2738   47.4075 H       1  ZINC000442864105    0.1500
     45 H45         3.7502    0.2318   49.2085 H       1  ZINC000442864105    0.2300
     46 H46         2.2937    1.6376   52.8902 H       1  ZINC000442864105    0.2300
     47 H47        -3.5344    1.4457   50.7040 H       1  ZINC000442864105    0.1200
@<TRIPOS>BOND
     1     1     2    1
     2     1    31    1
     3     1    32    1
     4     1    33    1
     5     2    30    1
     6     2     3    1
     7     3     4    2
     8     3    34    1
     9     4     5    1
    10     4    35    1
    11     5    30   ar
    12     5     6   ar
    13     6     7   ar
    14     6    36    1
    15     7     8   ar
    16     7    37    1
    17     8     9    1
    18     8    29   ar
    19     9    10    1
    20     9    38    1
    21    10    11    1
    22    10    39    1
    23    10    40    1
    24    11    12    2
    25    11    13   am
    26    13    14    1
    27    13    41    1
    28    14    23   ar
    29    14    15   ar
    30    15    16   ar
    31    15    42    1
    32    16    17    1
    33    16    21   ar
    34    17    18    1
    35    17    19    1
    36    17    20    1
    37    21    22   ar
    38    21    43    1
    39    22    23   ar
    40    22    44    1
    41    23    24    1
    42    24    28    1
    43    24    25    1
    44    25    26    2
    45    25    45    1
    46    26    27    1
    47    27    28    2
    48    27    46    1
    49    29    30   ar
    50    29    47    1
@<TRIPOS>SUBSTRUCTURE
     1 ZINC000442864105        1 TEMP              0 ****  ****    0 ROOT


##########                                Name:    ZINC000555499135
##########                DOCK_Rotatable_Bonds:                   8
##########                         Heavy_Atoms:                  26
##########                    Molecular_Weight:             377.554
##########                DOCK_Rotatable_Bonds:                   8
##########                       Formal_Charge:           0.0399999
##########                     HBond_Acceptors:                   7
##########                        HBond_Donors:                   0
##########                         Heavy_Atoms:                  26
##########                          Grid_Score:          -32.069550
##########                     Grid_vdw_energy:          -30.885765
##########                      Grid_es_energy:           -1.183783
##########           Internal_energy_repulsive:           12.329172

@<TRIPOS>MOLECULE
ZINC000555499135
 57 59 1 0 0
SMALL
USER_CHARGES


@<TRIPOS>ATOM
      1 C1         -7.7342    7.7409   46.7245 C.3     1  ZINC000555499135   -0.1500
      2 C2         -6.9846    7.9917   48.0345 C.3     1  ZINC000555499135   -0.0500
      3 C3         -7.0104    6.7413   48.8752 C.2     1  ZINC000555499135   -0.2100
      4 C4         -6.9556    6.6897   50.2095 C.2     1  ZINC000555499135    0.0300
      5 N5         -6.9943    5.4718   50.7113 N.2     1  ZINC000555499135   -0.4500
      6 C6         -7.0788    4.4932   49.8747 C.2     1  ZINC000555499135    0.0400
      7 C7         -7.1346    3.0359   50.2546 C.3     1  ZINC000555499135    0.1500
      8 N8         -6.3126    2.8100   51.4509 N.3     1  ZINC000555499135   -0.4500
      9 C9         -7.0213    1.9699   52.4256 C.3     1  ZINC000555499135    0.0100
     10 C10        -5.0880    2.2551   51.1147 C.2     1  ZINC000555499135    0.3500
     11 N11        -4.8880    1.0764   50.5739 N.2     1  ZINC000555499135   -0.3100
     12 N12        -3.6294    0.8852   50.3967 N.2     1  ZINC000555499135   -0.2900
     13 C13        -2.9574    1.9221   50.8104 C.2     1  ZINC000555499135    0.2100
     14 C14        -1.4600    2.0884   50.7745 C.3     1  ZINC000555499135   -0.0300
     15 C15        -1.0526    2.7570   49.4600 C.3     1  ZINC000555499135   -0.0900
     16 C16         0.4445    3.0708   49.4901 C.3     1  ZINC000555499135   -0.1500
     17 C17        -1.3527    1.8136   48.2935 C.3     1  ZINC000555499135   -0.1500
     18 N18        -3.8631    2.8337   51.2778 N.pl3   1  ZINC000555499135   -0.4600
     19 C19        -3.5771    4.1541   51.8442 C.3     1  ZINC000555499135    0.1100
     20 C20        -3.0890    3.9960   53.2855 C.3     1  ZINC000555499135    0.0700
     21 H21        -2.5884    3.0341   53.3964 H       1  ZINC000555499135    0.0700
     22 C22        -4.2845    4.0622   54.2395 C.3     1  ZINC000555499135   -0.1500
     23 C23        -3.7819    3.9635   55.6832 C.3     1  ZINC000555499135   -0.1200
     24 C24        -2.7718    5.0864   55.9384 C.3     1  ZINC000555499135   -0.1600
     25 C25        -1.6346    4.9807   54.9187 C.3     1  ZINC000555499135    0.0600
     26 O26        -2.1736    5.0483   53.5970 O.3     1  ZINC000555499135   -0.3700
     27 S27        -7.1258    5.0895   48.2730 S.3     1  ZINC000555499135    0.1200
     28 H28        -7.2535    6.9276   46.1808 H       1  ZINC000555499135    0.0600
     29 H29        -8.7675    7.4713   46.9429 H       1  ZINC000555499135    0.0600
     30 H30        -7.7155    8.6453   46.1163 H       1  ZINC000555499135    0.0700
     31 H31        -5.9514    8.2613   47.8160 H       1  ZINC000555499135    0.0900
     32 H32        -7.4652    8.8051   48.5781 H       1  ZINC000555499135    0.0800
     33 H33        -6.8853    7.5736   50.8259 H       1  ZINC000555499135    0.1800
     34 H34        -8.1665    2.7543   50.4642 H       1  ZINC000555499135    0.0800
     35 H35        -6.7528    2.4311   49.4320 H       1  ZINC000555499135    0.1200
     36 H36        -7.1470    0.9670   52.0174 H       1  ZINC000555499135    0.0500
     37 H37        -6.4431    1.9168   53.3480 H       1  ZINC000555499135    0.0800
     38 H38        -7.9998    2.4024   52.6345 H       1  ZINC000555499135    0.0900
     39 H39        -1.1434    2.7102   51.6119 H       1  ZINC000555499135    0.1000
     40 H40        -0.9841    1.1105   50.8476 H       1  ZINC000555499135    0.1000
     41 H41        -1.6153    3.6819   49.3333 H       1  ZINC000555499135    0.0800
     42 H42         0.6646    3.7107   50.3446 H       1  ZINC000555499135    0.0500
     43 H43         1.0087    2.1422   49.5766 H       1  ZINC000555499135    0.0600
     44 H44         0.7269    3.5831   48.5703 H       1  ZINC000555499135    0.0600
     45 H45        -2.4193    1.5901   48.2721 H       1  ZINC000555499135    0.0600
     46 H46        -1.0624    2.2899   47.3570 H       1  ZINC000555499135    0.0600
     47 H47        -0.7900    0.8886   48.4204 H       1  ZINC000555499135    0.0600
     48 H48        -2.8052    4.6444   51.2509 H       1  ZINC000555499135    0.1100
     49 H49        -4.4838    4.7589   51.8319 H       1  ZINC000555499135    0.1200
     50 H50        -4.8096    5.0072   54.1004 H       1  ZINC000555499135    0.0800
     51 H51        -4.9621    3.2339   54.0324 H       1  ZINC000555499135    0.0800
     52 H52        -4.6223    4.0662   56.3697 H       1  ZINC000555499135    0.0700
     53 H53        -3.3002    2.9978   55.8364 H       1  ZINC000555499135    0.0600
     54 H54        -3.2663    6.0520   55.8335 H       1  ZINC000555499135    0.0700
     55 H55        -2.3674    4.9906   56.9460 H       1  ZINC000555499135    0.0800
     56 H56        -0.9347    5.8026   55.0683 H       1  ZINC000555499135    0.1000
     57 H57        -1.1149    4.0317   55.0510 H       1  ZINC000555499135    0.0500
@<TRIPOS>BOND
     1     1     2    1
     2     1    28    1
     3     1    29    1
     4     1    30    1
     5     2     3    1
     6     2    31    1
     7     2    32    1
     8     3    27    1
     9     3     4    2
    10     4     5    1
    11     4    33    1
    12     5     6    2
    13     6     7    1
    14     6    27    1
    15     7     8    1
    16     7    34    1
    17     7    35    1
    18     8     9    1
    19     8    10    1
    20     9    36    1
    21     9    37    1
    22     9    38    1
    23    10    18    1
    24    10    11    2
    25    11    12    1
    26    12    13    2
    27    13    14    1
    28    13    18    1
    29    14    15    1
    30    14    39    1
    31    14    40    1
    32    15    16    1
    33    15    17    1
    34    15    41    1
    35    16    42    1
    36    16    43    1
    37    16    44    1
    38    17    45    1
    39    17    46    1
    40    17    47    1
    41    18    19    1
    42    19    20    1
    43    19    48    1
    44    19    49    1
    45    20    21    1
    46    20    26    1
    47    20    22    1
    48    22    23    1
    49    22    50    1
    50    22    51    1
    51    23    24    1
    52    23    52    1
    53    23    53    1
    54    24    25    1
    55    24    54    1
    56    24    55    1
    57    25    26    1
    58    25    56    1
    59    25    57    1
@<TRIPOS>SUBSTRUCTURE
     1 ZINC000555499135        1 TEMP              0 ****  ****    0 ROOT


##########                                Name:    ZINC000459459628
##########                DOCK_Rotatable_Bonds:                   8
##########                         Heavy_Atoms:                  27
##########                    Molecular_Weight:             377.366
##########                DOCK_Rotatable_Bonds:                   8
##########                       Formal_Charge:         -0.00999984
##########                     HBond_Acceptors:                   8
##########                        HBond_Donors:                   1
##########                         Heavy_Atoms:                  27
##########                          Grid_Score:          -32.041016
##########                     Grid_vdw_energy:          -31.519739
##########                      Grid_es_energy:           -0.521277
##########           Internal_energy_repulsive:           13.398628

@<TRIPOS>MOLECULE
ZINC000459459628
 45 46 1 0 0
SMALL
USER_CHARGES


@<TRIPOS>ATOM
      1 C1         -6.0813    2.9555   52.4522 C.3     1  ZINC000459459628   -0.1600
      2 C2         -5.9200    2.7419   50.9458 C.3     1  ZINC000459459628    0.1600
      3 H3         -5.2131    3.4707   50.5491 H       1  ZINC000459459628    0.1100
      4 C4         -7.2751    2.9189   50.2576 C.3     1  ZINC000459459628   -0.0900
      5 C5         -7.4485    4.3603   49.8532 C.ar    1  ZINC000459459628   -0.0500
      6 C6         -7.9832    5.2691   50.7469 C.ar    1  ZINC000459459628   -0.1200
      7 C7         -8.1430    6.5917   50.3773 C.ar    1  ZINC000459459628   -0.0900
      8 C8         -7.7682    7.0066   49.1136 C.ar    1  ZINC000459459628   -0.1600
      9 C9         -7.2320    6.0971   48.2176 C.ar    1  ZINC000459459628    0.1000
     10 F10        -6.8652    6.5016   46.9818 F       1  ZINC000459459628   -0.1400
     11 C11        -7.0676    4.7741   48.5906 C.ar    1  ZINC000459459628   -0.1500
     12 N12        -5.4182    1.3885   50.6953 N.am    1  ZINC000459459628   -0.6200
     13 C13        -6.3418    0.2513   50.7055 C.3     1  ZINC000459459628    0.0700
     14 C14        -4.1070    1.1897   50.4557 C.2     1  ZINC000459459628    0.7100
     15 O15        -3.6901    0.0663   50.2493 O.2     1  ZINC000459459628   -0.5700
     16 N16        -3.2577    2.2362   50.4449 N.am    1  ZINC000459459628   -0.6800
     17 C17        -1.8937    2.0294   50.1957 C.ar    1  ZINC000459459628    0.1500
     18 C18        -1.4773    1.5811   48.9557 C.ar    1  ZINC000459459628   -0.0400
     19 C19        -0.1165    1.3767   48.7113 C.ar    1  ZINC000459459628   -0.0300
     20 C20         0.3203    0.9129   47.4289 C.1     1  ZINC000459459628    0.2600
     21 N21         0.6670    0.5450   46.4116 N.1     1  ZINC000459459628   -0.4100
     22 C22         0.8166    1.6261   49.7207 C.ar    1  ZINC000459459628   -0.0500
     23 C23         0.3949    2.0725   50.9551 C.ar    1  ZINC000459459628   -0.1700
     24 C24        -0.9552    2.2814   51.1972 C.ar    1  ZINC000459459628    0.1100
     25 O25        -1.3652    2.7213   52.4151 O.3     1  ZINC000459459628   -0.3200
     26 C26        -1.3550    4.1338   52.6319 C.3     1  ZINC000459459628    0.4100
     27 F27        -0.6426    4.7584   51.6026 F       1  ZINC000459459628   -0.1900
     28 F28        -2.6694    4.6127   52.6466 F       1  ZINC000459459628   -0.1900
     29 H29        -6.7882    2.2267   52.8489 H       1  ZINC000459459628    0.0600
     30 H30        -5.1160    2.8293   52.9424 H       1  ZINC000459459628    0.0600
     31 H31        -6.4546    3.9624   52.6385 H       1  ZINC000459459628    0.0700
     32 H32        -7.3182    2.2852   49.3718 H       1  ZINC000459459628    0.0800
     33 H33        -8.0716    2.6362   50.9458 H       1  ZINC000459459628    0.0900
     34 H34        -8.2767    4.9455   51.7347 H       1  ZINC000459459628    0.1300
     35 H35        -8.5612    7.3008   51.0763 H       1  ZINC000459459628    0.1300
     36 H36        -7.8937    8.0397   48.8248 H       1  ZINC000459459628    0.1300
     37 H37        -6.6492    4.0641   47.8927 H       1  ZINC000459459628    0.1300
     38 H38        -6.7358    0.0945   49.7014 H       1  ZINC000459459628    0.0600
     39 H39        -5.8124   -0.6438   51.0320 H       1  ZINC000459459628    0.0700
     40 H40        -7.1642    0.4573   51.3904 H       1  ZINC000459459628    0.0800
     41 H41        -3.5902    3.1324   50.6096 H       1  ZINC000459459628    0.4100
     42 H42        -2.2018    1.3890   48.1782 H       1  ZINC000459459628    0.1600
     43 H43         1.8686    1.4689   49.5340 H       1  ZINC000459459628    0.1400
     44 H44         1.1177    2.2642   51.7343 H       1  ZINC000459459628    0.1500
     45 H45        -0.8784    4.3512   53.5877 H       1  ZINC000459459628    0.1900
@<TRIPOS>BOND
     1     1     2    1
     2     1    29    1
     3     1    30    1
     4     1    31    1
     5     2     3    1
     6     2     4    1
     7     2    12    1
     8     4     5    1
     9     4    32    1
    10     4    33    1
    11     5    11   ar
    12     5     6   ar
    13     6     7   ar
    14     6    34    1
    15     7     8   ar
    16     7    35    1
    17     8     9   ar
    18     8    36    1
    19     9    10    1
    20     9    11   ar
    21    11    37    1
    22    12    13    1
    23    12    14   am
    24    13    38    1
    25    13    39    1
    26    13    40    1
    27    14    15    2
    28    14    16   am
    29    16    17    1
    30    16    41    1
    31    17    24   ar
    32    17    18   ar
    33    18    19   ar
    34    18    42    1
    35    19    20    1
    36    19    22   ar
    37    20    21    3
    38    22    23   ar
    39    22    43    1
    40    23    24   ar
    41    23    44    1
    42    24    25    1
    43    25    26    1
    44    26    27    1
    45    26    28    1
    46    26    45    1
@<TRIPOS>SUBSTRUCTURE
     1 ZINC000459459628        1 TEMP              0 ****  ****    0 ROOT


##########                                Name:    ZINC000751548479
##########                DOCK_Rotatable_Bonds:                   9
##########                         Heavy_Atoms:                  27
##########                    Molecular_Weight:             389.407
##########                DOCK_Rotatable_Bonds:                   9
##########                       Formal_Charge:           0.0199995
##########                     HBond_Acceptors:                   9
##########                        HBond_Donors:                   2
##########                         Heavy_Atoms:                  27
##########                          Grid_Score:          -32.025871
##########                     Grid_vdw_energy:          -30.932486
##########                      Grid_es_energy:           -1.093386
##########           Internal_energy_repulsive:            9.461942

@<TRIPOS>MOLECULE
ZINC000751548479
 43 44 1 0 0
SMALL
USER_CHARGES


@<TRIPOS>ATOM
      1 C1         -7.0547    2.0157   51.2056 C.3     1  ZINC000751548479   -0.1600
      2 C2         -6.6131    0.5893   50.8719 C.3     1  ZINC000751548479    0.0800
      3 O3         -5.2509    0.3844   51.3310 O.3     1  ZINC000751548479   -0.3600
      4 C4         -4.2830    1.0770   50.7011 C.2     1  ZINC000751548479    0.6500
      5 O5         -4.4508    1.4532   49.5580 O.2     1  ZINC000751548479   -0.5400
      6 N6         -3.1281    1.3527   51.3388 N.am    1  ZINC000751548479   -0.6500
      7 C7         -2.1242    2.0709   50.6857 C.ar    1  ZINC000751548479    0.2000
      8 C8         -1.4571    1.5094   49.6066 C.ar    1  ZINC000751548479   -0.1000
      9 C9         -0.4644    2.2180   48.9600 C.ar    1  ZINC000751548479   -0.1000
     10 C10        -0.1253    3.4984   49.3839 C.ar    1  ZINC000751548479    0.1300
     11 N11         0.8826    4.2086   48.7222 N.am    1  ZINC000751548479   -1.0500
     12 S12         0.5667    4.9322   47.2665 S.o2    1  ZINC000751548479    2.6800
     13 O13        -0.5761    5.7529   47.4660 O.2     1  ZINC000751548479   -0.9500
     14 O14         1.8082    5.4315   46.7887 O.2     1  ZINC000751548479   -0.9400
     15 C15         0.0776    3.6617   46.1478 C.2     1  ZINC000751548479   -0.7500
     16 C16         0.9794    2.8144   45.6718 C.2     1  ZINC000751548479    0.0700
     17 C17         0.5690    1.7476   44.7350 C.ar    1  ZINC000751548479   -0.1100
     18 C18        -0.6850    1.1485   44.8619 C.ar    1  ZINC000751548479   -0.0600
     19 C19        -1.0633    0.1537   43.9846 C.ar    1  ZINC000751548479   -0.1600
     20 C20        -0.2005   -0.2515   42.9788 C.ar    1  ZINC000751548479    0.1200
     21 F21        -0.5758   -1.2266   42.1224 F       1  ZINC000751548479   -0.1300
     22 C22         1.0455    0.3404   42.8480 C.ar    1  ZINC000751548479   -0.1600
     23 C23         1.4317    1.3398   43.7167 C.ar    1  ZINC000751548479   -0.0500
     24 C24        -0.7829    4.0726   50.4590 C.ar    1  ZINC000751548479   -0.0600
     25 C25        -1.7915    3.3642   51.1154 C.ar    1  ZINC000751548479   -0.0300
     26 C26        -2.4764    3.9513   52.2275 C.1     1  ZINC000751548479    0.2500
     27 N27        -3.0197    4.4172   53.1097 N.1     1  ZINC000751548479   -0.4000
     28 H28        -6.3933    2.7261   50.7096 H       1  ZINC000751548479    0.0700
     29 H29        -8.0772    2.1695   50.8609 H       1  ZINC000751548479    0.0900
     30 H30        -7.0080    2.1676   52.2839 H       1  ZINC000751548479    0.0700
     31 H31        -7.2745   -0.1211   51.3678 H       1  ZINC000751548479    0.0800
     32 H32        -6.6598    0.4374   49.7935 H       1  ZINC000751548479    0.0800
     33 H33        -2.9942    1.0524   52.2513 H       1  ZINC000751548479    0.4200
     34 H34        -1.7148    0.5154   49.2720 H       1  ZINC000751548479    0.1600
     35 H35         0.0517    1.7757   48.1207 H       1  ZINC000751548479    0.1700
     36 H36         1.7664    4.2770   49.1161 H       1  ZINC000751548479    0.4300
     37 H37        -0.9566    3.5732   45.8500 H       1  ZINC000751548479    0.1700
     38 H38         2.0140    2.9037   45.9687 H       1  ZINC000751548479    0.1500
     39 H39        -1.3579    1.4631   45.6460 H       1  ZINC000751548479    0.1400
     40 H40        -2.0336   -0.3106   44.0820 H       1  ZINC000751548479    0.1400
     41 H41         1.7141    0.0212   42.0622 H       1  ZINC000751548479    0.1400
     42 H42         2.4029    1.8007   43.6138 H       1  ZINC000751548479    0.1400
     43 H43        -0.5184    5.0669   50.7870 H       1  ZINC000751548479    0.1500
@<TRIPOS>BOND
     1     1     2    1
     2     1    28    1
     3     1    29    1
     4     1    30    1
     5     2     3    1
     6     2    31    1
     7     2    32    1
     8     3     4    1
     9     4     5    2
    10     4     6   am
    11     6     7    1
    12     6    33    1
    13     7    25   ar
    14     7     8   ar
    15     8     9   ar
    16     8    34    1
    17     9    10   ar
    18     9    35    1
    19    10    11    1
    20    10    24   ar
    21    11    12   am
    22    11    36    1
    23    12    13    2
    24    12    14    2
    25    12    15    1
    26    15    16    2
    27    15    37    1
    28    16    17    1
    29    16    38    1
    30    17    23   ar
    31    17    18   ar
    32    18    19   ar
    33    18    39    1
    34    19    20   ar
    35    19    40    1
    36    20    21    1
    37    20    22   ar
    38    22    23   ar
    39    22    41    1
    40    23    42    1
    41    24    25   ar
    42    24    43    1
    43    25    26    1
    44    26    27    3
@<TRIPOS>SUBSTRUCTURE
     1 ZINC000751548479        1 TEMP              0 ****  ****    0 ROOT


##########                                Name:    ZINC001041713551
##########                DOCK_Rotatable_Bonds:                  10
##########                         Heavy_Atoms:                  22
##########                    Molecular_Weight:             330.448
##########                DOCK_Rotatable_Bonds:                  10
##########                       Formal_Charge:          -0.0100006
##########                     HBond_Acceptors:                   7
##########                        HBond_Donors:                   2
##########                         Heavy_Atoms:                  22
##########                          Grid_Score:          -32.025417
##########                     Grid_vdw_energy:          -31.790398
##########                      Grid_es_energy:           -0.235019
##########           Internal_energy_repulsive:            6.555690

@<TRIPOS>MOLECULE
ZINC001041713551
 48 49 1 0 0
SMALL
USER_CHARGES


@<TRIPOS>ATOM
      1 C1        -13.7988    0.4989   50.8078 C.3     1  ZINC001041713551   -0.1500
      2 C2        -12.4851    0.3620   51.5802 C.3     1  ZINC001041713551   -0.1100
      3 C3        -12.6815    0.8615   53.0129 C.3     1  ZINC001041713551   -0.1000
      4 S4        -11.1083    0.7588   53.9101 S.3     1  ZINC001041713551   -0.1800
      5 C5        -10.0112    1.8231   52.9334 C.3     1  ZINC001041713551   -0.1300
      6 C6         -9.0317    0.9692   52.1701 C.2     1  ZINC001041713551    0.5300
      7 O7         -9.3168   -0.1751   51.8873 O.2     1  ZINC001041713551   -0.5100
      8 N8         -7.8389    1.4773   51.8019 N.am    1  ZINC001041713551   -0.7300
      9 C9         -6.8874    0.6477   51.0585 C.3     1  ZINC001041713551    0.1000
     10 C10        -5.7403    1.5213   50.5469 C.3     1  ZINC001041713551    0.0900
     11 O11        -6.1090    2.3228   49.4227 O.3     1  ZINC001041713551   -0.5200
     12 C12        -5.0138    2.3027   51.6566 C.3     1  ZINC001041713551    0.0900
     13 N13        -3.7661    1.9377   50.9581 N.am    1  ZINC001041713551   -0.6400
     14 C14        -2.5288    2.4685   50.8951 C.2     1  ZINC001041713551    0.5500
     15 O15        -2.2694    3.4772   51.5166 O.2     1  ZINC001041713551   -0.5100
     16 C16        -1.4678    1.8088   50.0525 C.3     1  ZINC001041713551    0.0800
     17 H17        -1.4774    0.7337   50.2321 H       1  ZINC001041713551    0.0800
     18 C18        -0.0952    2.3760   50.4238 C.3     1  ZINC001041713551   -0.1500
     19 C19         0.9703    1.7449   49.5222 C.3     1  ZINC001041713551   -0.1200
     20 C20         0.6077    2.0116   48.0581 C.3     1  ZINC001041713551   -0.1600
     21 C21        -0.7920    1.4585   47.7783 C.3     1  ZINC001041713551    0.0600
     22 O22        -1.7295    2.0636   48.6710 O.3     1  ZINC001041713551   -0.3600
     23 C23        -4.4171    0.7578   50.3564 C.3     1  ZINC001041713551    0.1200
     24 H24       -14.1020    1.5457   50.7893 H       1  ZINC001041713551    0.0600
     25 H25       -13.6588    0.1431   49.7871 H       1  ZINC001041713551    0.0600
     26 H26       -14.5713   -0.0946   51.2967 H       1  ZINC001041713551    0.0600
     27 H27       -12.1819   -0.6848   51.5987 H       1  ZINC001041713551    0.0700
     28 H28       -11.7126    0.9555   51.0912 H       1  ZINC001041713551    0.0700
     29 H29       -13.0218    1.8968   52.9934 H       1  ZINC001041713551    0.0800
     30 H30       -13.4266    0.2436   53.5142 H       1  ZINC001041713551    0.0800
     31 H31       -10.6045    2.4104   52.2324 H       1  ZINC001041713551    0.1100
     32 H32        -9.4673    2.4930   53.5994 H       1  ZINC001041713551    0.1100
     33 H33        -7.6104    2.3922   52.0293 H       1  ZINC001041713551    0.4000
     34 H34        -6.4899   -0.1263   51.7150 H       1  ZINC001041713551    0.0900
     35 H35        -7.3943    0.1821   50.2134 H       1  ZINC001041713551    0.0900
     36 H36        -6.4589    1.8166   48.6767 H       1  ZINC001041713551    0.3800
     37 H37        -5.2239    3.3723   51.6505 H       1  ZINC001041713551    0.0900
     38 H38        -5.1110    1.8545   52.6454 H       1  ZINC001041713551    0.1000
     39 H39        -0.0975    3.4569   50.2831 H       1  ZINC001041713551    0.0800
     40 H40         0.1253    2.1438   51.4658 H       1  ZINC001041713551    0.0800
     41 H41         1.9425    2.1855   49.7432 H       1  ZINC001041713551    0.0700
     42 H42         1.0071    0.6699   49.6987 H       1  ZINC001041713551    0.0700
     43 H43         0.6195    3.0852   47.8697 H       1  ZINC001041713551    0.0700
     44 H44         1.3308    1.5189   47.4081 H       1  ZINC001041713551    0.0800
     45 H45        -1.0728    1.6833   46.7492 H       1  ZINC001041713551    0.1000
     46 H46        -0.7929    0.3788   47.9277 H       1  ZINC001041713551    0.0500
     47 H47        -4.3392   -0.1443   50.9633 H       1  ZINC001041713551    0.1100
     48 H48        -4.1509    0.5939   49.3122 H       1  ZINC001041713551    0.1000
@<TRIPOS>BOND
     1     1     2    1
     2     1    24    1
     3     1    25    1
     4     1    26    1
     5     2     3    1
     6     2    27    1
     7     2    28    1
     8     3     4    1
     9     3    29    1
    10     3    30    1
    11     4     5    1
    12     5     6    1
    13     5    31    1
    14     5    32    1
    15     6     7    2
    16     6     8   am
    17     8     9    1
    18     8    33    1
    19     9    10    1
    20     9    34    1
    21     9    35    1
    22    10    23    1
    23    10    11    1
    24    10    12    1
    25    11    36    1
    26    12    13    1
    27    12    37    1
    28    12    38    1
    29    13    14   am
    30    13    23    1
    31    14    15    2
    32    14    16    1
    33    16    17    1
    34    16    22    1
    35    16    18    1
    36    18    19    1
    37    18    39    1
    38    18    40    1
    39    19    20    1
    40    19    41    1
    41    19    42    1
    42    20    21    1
    43    20    43    1
    44    20    44    1
    45    21    22    1
    46    21    45    1
    47    21    46    1
    48    23    47    1
    49    23    48    1
@<TRIPOS>SUBSTRUCTURE
     1 ZINC001041713551        1 TEMP              0 ****  ****    0 ROOT


##########                                Name:    ZINC000474368324
##########                DOCK_Rotatable_Bonds:                   9
##########                         Heavy_Atoms:                  27
##########                    Molecular_Weight:             417.332
##########                DOCK_Rotatable_Bonds:                   9
##########                       Formal_Charge:        -1.63913e-07
##########                     HBond_Acceptors:                   8
##########                        HBond_Donors:                   1
##########                         Heavy_Atoms:                  27
##########                          Grid_Score:          -32.012436
##########                     Grid_vdw_energy:          -31.597694
##########                      Grid_es_energy:           -0.414741
##########           Internal_energy_repulsive:           25.709454

@<TRIPOS>MOLECULE
ZINC000474368324
 53 54 1 0 0
SMALL
USER_CHARGES


@<TRIPOS>ATOM
      1 C1          2.9519    0.3643   41.7182 C.3     1  ZINC000474368324   -0.1500
      2 C2          3.2551    0.1849   43.2071 C.3     1  ZINC000474368324    0.0600
      3 O3          2.1781    0.7601   43.9930 O.3     1  ZINC000474368324   -0.3300
      4 C4          2.1701    2.0952   44.1309 C.2     1  ZINC000474368324    0.4700
      5 O5          3.0915    2.7519   43.7068 O.2     1  ZINC000474368324   -0.5100
      6 C6          1.0120    2.7752   44.8146 C.3     1  ZINC000474368324   -0.0400
      7 C7          0.0910    3.3949   43.7617 C.3     1  ZINC000474368324    0.0600
      8 O8          0.8085    4.3878   43.0261 O.3     1  ZINC000474368324   -0.3700
      9 C9          0.0056    5.1134   42.0930 C.3     1  ZINC000474368324    0.0300
     10 C10         0.2292    1.7472   45.6348 C.3     1  ZINC000474368324   -0.1200
     11 C11        -0.9670    2.4349   46.3003 C.3     1  ZINC000474368324    0.1100
     12 N12        -0.4803    3.5827   47.0776 N.am    1  ZINC000474368324   -0.6300
     13 C13        -0.7968    3.7132   48.3811 C.2     1  ZINC000474368324    0.7100
     14 O14        -0.3878    4.6678   49.0135 O.2     1  ZINC000474368324   -0.5800
     15 N15        -1.5668    2.7857   48.9838 N.am    1  ZINC000474368324   -0.7400
     16 C16        -1.9109    2.9275   50.4007 C.3     1  ZINC000474368324    0.2000
     17 H17        -2.0183    3.9844   50.6445 H       1  ZINC000474368324    0.1100
     18 C18        -0.8012    2.3164   51.2586 C.3     1  ZINC000474368324   -0.1600
     19 C19        -3.2094    2.2139   50.6762 C.ar    1  ZINC000474368324   -0.0700
     20 C20        -3.3967    0.9212   50.2249 C.ar    1  ZINC000474368324   -0.1000
     21 C21        -4.5876    0.2656   50.4777 C.ar    1  ZINC000474368324   -0.0900
     22 C22        -5.5919    0.9023   51.1817 C.ar    1  ZINC000474368324   -0.1000
     23 C23        -5.4061    2.1965   51.6343 C.ar    1  ZINC000474368324   -0.0300
     24 Cl24       -6.6674    2.9967   52.5187 Cl      1  ZINC000474368324   -0.0400
     25 C25        -4.2117    2.8510   51.3857 C.ar    1  ZINC000474368324   -0.0300
     26 Cl26       -3.9767    4.4747   51.9533 Cl      1  ZINC000474368324   -0.0400
     27 C27         0.3586    4.5854   46.4070 C.3     1  ZINC000474368324    0.1300
     28 C28         1.5399    3.8737   45.7402 C.3     1  ZINC000474368324   -0.1200
     29 H29         3.7604   -0.0675   41.1282 H       1  ZINC000474368324    0.0800
     30 H30         2.0160   -0.1385   41.4748 H       1  ZINC000474368324    0.0700
     31 H31         2.8635    1.4266   41.4908 H       1  ZINC000474368324    0.0700
     32 H32         3.3435   -0.8775   43.4344 H       1  ZINC000474368324    0.0700
     33 H33         4.1910    0.6877   43.4505 H       1  ZINC000474368324    0.0700
     34 H34        -0.2563    2.6182   43.0804 H       1  ZINC000474368324    0.0700
     35 H35        -0.7654    3.8558   44.2541 H       1  ZINC000474368324    0.0600
     36 H36        -0.4223    4.4220   41.3671 H       1  ZINC000474368324    0.0400
     37 H37        -0.7970    5.6245   42.6247 H       1  ZINC000474368324    0.0400
     38 H38         0.6233    5.8472   41.5754 H       1  ZINC000474368324    0.0900
     39 H39        -0.1266    0.9530   44.9785 H       1  ZINC000474368324    0.1000
     40 H40         0.8778    1.3233   46.4012 H       1  ZINC000474368324    0.0800
     41 H41        -1.6623    2.7802   45.5351 H       1  ZINC000474368324    0.0800
     42 H42        -1.4703    1.7315   46.9636 H       1  ZINC000474368324    0.0800
     43 H43        -1.8932    2.0242   48.4792 H       1  ZINC000474368324    0.3900
     44 H44        -0.6938    1.2594   51.0148 H       1  ZINC000474368324    0.0600
     45 H45         0.1380    2.8324   51.0594 H       1  ZINC000474368324    0.0700
     46 H46        -1.0572    2.4218   52.3129 H       1  ZINC000474368324    0.0700
     47 H47        -2.6125    0.4228   49.6743 H       1  ZINC000474368324    0.1300
     48 H48        -4.7330   -0.7446   50.1243 H       1  ZINC000474368324    0.1400
     49 H49        -6.5220    0.3898   51.3786 H       1  ZINC000474368324    0.1500
     50 H50        -0.2286    5.1061   45.6505 H       1  ZINC000474368324    0.0700
     51 H51         0.7300    5.3009   47.1406 H       1  ZINC000474368324    0.1100
     52 H52         2.1762    3.4297   46.5058 H       1  ZINC000474368324    0.0900
     53 H53         2.1171    4.5929   45.1591 H       1  ZINC000474368324    0.0900
@<TRIPOS>BOND
     1     1     2    1
     2     1    29    1
     3     1    30    1
     4     1    31    1
     5     2     3    1
     6     2    32    1
     7     2    33    1
     8     3     4    1
     9     4     5    2
    10     4     6    1
    11     6    28    1
    12     6     7    1
    13     6    10    1
    14     7     8    1
    15     7    34    1
    16     7    35    1
    17     8     9    1
    18     9    36    1
    19     9    37    1
    20     9    38    1
    21    10    11    1
    22    10    39    1
    23    10    40    1
    24    11    12    1
    25    11    41    1
    26    11    42    1
    27    12    13   am
    28    12    27    1
    29    13    14    2
    30    13    15   am
    31    15    16    1
    32    15    43    1
    33    16    17    1
    34    16    18    1
    35    16    19    1
    36    18    44    1
    37    18    45    1
    38    18    46    1
    39    19    25   ar
    40    19    20   ar
    41    20    21   ar
    42    20    47    1
    43    21    22   ar
    44    21    48    1
    45    22    23   ar
    46    22    49    1
    47    23    24    1
    48    23    25   ar
    49    25    26    1
    50    27    28    1
    51    27    50    1
    52    27    51    1
    53    28    52    1
    54    28    53    1
@<TRIPOS>SUBSTRUCTURE
     1 ZINC000474368324        1 TEMP              0 ****  ****    0 ROOT


##########                                Name:    ZINC000956479608
##########                DOCK_Rotatable_Bonds:                   5
##########                         Heavy_Atoms:                  25
##########                    Molecular_Weight:             345.442
##########                DOCK_Rotatable_Bonds:                   5
##########                       Formal_Charge:          -0.0100001
##########                     HBond_Acceptors:                   6
##########                        HBond_Donors:                   1
##########                         Heavy_Atoms:                  25
##########                          Grid_Score:          -32.010696
##########                     Grid_vdw_energy:          -31.033594
##########                      Grid_es_energy:           -0.977104
##########           Internal_energy_repulsive:           32.043053

@<TRIPOS>MOLECULE
ZINC000956479608
 52 55 1 0 0
SMALL
USER_CHARGES


@<TRIPOS>ATOM
      1 C1         -6.2884    2.8423   50.7866 C.3     1  ZINC000956479608   -0.0900
      2 C2         -5.6754    1.4742   50.6331 C.2     1  ZINC000956479608   -0.1100
      3 C3         -4.3485    1.1407   50.6211 C.2     1  ZINC000956479608   -0.1000
      4 C4         -3.2022    2.0589   50.7583 C.2     1  ZINC000956479608    0.6100
      5 O5         -3.3918    3.2527   50.8890 O.2     1  ZINC000956479608   -0.5000
      6 N6         -1.9446    1.5745   50.7388 N.am    1  ZINC000956479608   -0.7100
      7 C7         -0.8062    2.4866   50.8733 C.3     1  ZINC000956479608    0.1800
      8 C8         -0.9079    3.2362   52.2032 C.3     1  ZINC000956479608   -0.1700
      9 C9          0.4967    1.6843   50.8390 C.3     1  ZINC000956479608   -0.1500
     10 C10         0.5791    0.9081   49.5210 C.3     1  ZINC000956479608    0.1100
     11 N11         0.4220    1.8517   48.4058 N.am    1  ZINC000956479608   -0.6100
     12 C12         1.3365    1.9049   47.4172 C.2     1  ZINC000956479608    0.5500
     13 O13         2.2999    1.1685   47.4421 O.2     1  ZINC000956479608   -0.5400
     14 C14         1.1622    2.8794   46.2811 C.3     1  ZINC000956479608   -0.1900
     15 H15         1.0974    3.9292   46.5674 H       1  ZINC000956479608    0.1200
     16 C16         1.8457    2.5507   44.9603 C.3     1  ZINC000956479608   -0.1100
     17 H17         2.4048    1.6154   44.9331 H       1  ZINC000956479608    0.1000
     18 C18         2.4382    3.6683   44.1162 C.3     1  ZINC000956479608   -0.0900
     19 C19         1.4230    4.7963   43.9319 C.3     1  ZINC000956479608   -0.1200
     20 C20         0.1358    4.2045   43.3463 C.3     1  ZINC000956479608   -0.1200
     21 C21        -0.5944    3.4389   44.4498 C.3     1  ZINC000956479608   -0.0900
     22 C22         0.3324    2.4202   45.0722 C.3     1  ZINC000956479608   -0.1100
     23 H23        -0.0502    1.4002   45.1073 H       1  ZINC000956479608    0.1100
     24 C24        -0.7514    2.7357   48.3885 C.3     1  ZINC000956479608    0.1000
     25 C25        -0.8189    3.4916   49.7193 C.3     1  ZINC000956479608   -0.1400
     26 O26        -4.3005   -0.1952   50.4592 O.3     1  ZINC000956479608    0.1200
     27 N27        -5.4087   -0.6710   50.3773 N.2     1  ZINC000956479608   -0.3400
     28 C28        -6.3367    0.2361   50.4741 C.2     1  ZINC000956479608   -0.0100
     29 H29        -6.4535    3.0499   51.8439 H       1  ZINC000956479608    0.0800
     30 H30        -5.6147    3.5912   50.3702 H       1  ZINC000956479608    0.0900
     31 H31        -7.2405    2.8754   50.2569 H       1  ZINC000956479608    0.0800
     32 H32        -1.7934    0.6219   50.6358 H       1  ZINC000956479608    0.4100
     33 H33        -0.8994    2.5205   53.0253 H       1  ZINC000956479608    0.0800
     34 H34        -0.0610    3.9149   52.3035 H       1  ZINC000956479608    0.0700
     35 H35        -1.8361    3.8073   52.2283 H       1  ZINC000956479608    0.0600
     36 H36         1.3450    2.3647   50.9143 H       1  ZINC000956479608    0.0800
     37 H37         0.5155    0.9850   51.6749 H       1  ZINC000956479608    0.1000
     38 H38         1.5479    0.4140   49.4479 H       1  ZINC000956479608    0.0900
     39 H39        -0.2165    0.1638   49.4848 H       1  ZINC000956479608    0.0600
     40 H40         3.3262    4.0611   44.6115 H       1  ZINC000956479608    0.0700
     41 H41         2.7172    3.2724   43.1398 H       1  ZINC000956479608    0.0700
     42 H42         1.2084    5.2567   44.8963 H       1  ZINC000956479608    0.0600
     43 H43         1.8263    5.5435   43.2484 H       1  ZINC000956479608    0.0700
     44 H44        -0.5007    5.0079   42.9754 H       1  ZINC000956479608    0.0700
     45 H45         0.3835    3.5244   42.5312 H       1  ZINC000956479608    0.0700
     46 H46        -0.9246    4.1388   45.2174 H       1  ZINC000956479608    0.0700
     47 H47        -1.4628    2.9347   44.0258 H       1  ZINC000956479608    0.0700
     48 H48        -0.6604    3.4476   47.5681 H       1  ZINC000956479608    0.0900
     49 H49        -1.6555    2.1406   48.2600 H       1  ZINC000956479608    0.0700
     50 H50        -1.7365    4.0786   49.7581 H       1  ZINC000956479608    0.0900
     51 H51         0.0418    4.1550   49.8049 H       1  ZINC000956479608    0.0900
     52 H52        -7.4038    0.0749   50.4327 H       1  ZINC000956479608    0.2000
@<TRIPOS>BOND
     1     1     2    1
     2     1    29    1
     3     1    30    1
     4     1    31    1
     5     2    28    1
     6     2     3    2
     7     3     4    1
     8     3    26    1
     9     4     5    2
    10     4     6   am
    11     6     7    1
    12     6    32    1
    13     7    25    1
    14     7     8    1
    15     7     9    1
    16     8    33    1
    17     8    34    1
    18     8    35    1
    19     9    10    1
    20     9    36    1
    21     9    37    1
    22    10    11    1
    23    10    38    1
    24    10    39    1
    25    11    12   am
    26    11    24    1
    27    12    13    2
    28    12    14    1
    29    14    15    1
    30    14    22    1
    31    14    16    1
    32    16    17    1
    33    16    22    1
    34    16    18    1
    35    18    19    1
    36    18    40    1
    37    18    41    1
    38    19    20    1
    39    19    42    1
    40    19    43    1
    41    20    21    1
    42    20    44    1
    43    20    45    1
    44    21    22    1
    45    21    46    1
    46    21    47    1
    47    22    23    1
    48    24    25    1
    49    24    48    1
    50    24    49    1
    51    25    50    1
    52    25    51    1
    53    26    27    1
    54    27    28    2
    55    28    52    1
@<TRIPOS>SUBSTRUCTURE
     1 ZINC000956479608        1 TEMP              0 ****  ****    0 ROOT


##########                                Name:    ZINC000409064708
##########                DOCK_Rotatable_Bonds:                   8
##########                         Heavy_Atoms:                  29
##########                    Molecular_Weight:             415.442
##########                DOCK_Rotatable_Bonds:                   8
##########                       Formal_Charge:                0.03
##########                     HBond_Acceptors:                   8
##########                        HBond_Donors:                   0
##########                         Heavy_Atoms:                  29
##########                          Grid_Score:          -31.979750
##########                     Grid_vdw_energy:          -32.062103
##########                      Grid_es_energy:            0.082353
##########           Internal_energy_repulsive:           17.153641

@<TRIPOS>MOLECULE
ZINC000409064708
 47 49 1 0 0
SMALL
USER_CHARGES


@<TRIPOS>ATOM
      1 C1         -8.9423    3.9123   54.5163 C.3     1  ZINC000409064708    0.0400
      2 O2         -8.4170    3.9029   53.1627 O.3     1  ZINC000409064708   -0.3500
      3 C3         -7.5574    2.9208   52.8494 C.2     1  ZINC000409064708    0.4600
      4 O4         -6.8567    2.4352   53.7055 O.2     1  ZINC000409064708   -0.4900
      5 C5         -7.4664    2.4236   51.4296 C.3     1  ZINC000409064708    0.1400
      6 H6         -8.1027    1.5467   51.3102 H       1  ZINC000409064708    0.1500
      7 C7         -7.9298    3.5241   50.4731 C.3     1  ZINC000409064708   -0.1600
      8 N8         -6.0787    2.0650   51.1259 N.am    1  ZINC000409064708   -0.5600
      9 C9         -5.7767    0.8271   50.7177 C.2     1  ZINC000409064708    0.5400
     10 O10        -6.5557   -0.0931   50.5571 O.2     1  ZINC000409064708   -0.4200
     11 S11        -4.0245    0.7849   50.4547 S.3     1  ZINC000409064708   -0.0100
     12 C12        -3.7711    2.4795   50.9181 C.2     1  ZINC000409064708   -0.2400
     13 C13        -2.6031    3.1694   50.9541 C.2     1  ZINC000409064708    0.0900
     14 C14        -1.3473    2.5072   50.5787 C.ar    1  ZINC000409064708   -0.1400
     15 C15        -0.3455    2.3061   51.5362 C.ar    1  ZINC000409064708    0.0000
     16 C16         0.8299    1.6847   51.1788 C.ar    1  ZINC000409064708   -0.1600
     17 C17         1.0232    1.2577   49.8700 C.ar    1  ZINC000409064708    0.1600
     18 O18         2.1842    0.6454   49.5230 O.3     1  ZINC000409064708   -0.3000
     19 C19         3.3771    1.4292   49.5929 C.3     1  ZINC000409064708    0.1000
     20 C20         4.1440    1.0667   50.8385 C.ar    1  ZINC000409064708   -0.0700
     21 C21         4.8322    2.0426   51.5346 C.ar    1  ZINC000409064708   -0.1000
     22 C22         5.5364    1.7115   52.6775 C.ar    1  ZINC000409064708   -0.0900
     23 C23         5.5526    0.4043   53.1253 C.ar    1  ZINC000409064708   -0.1400
     24 C24         4.8630   -0.5741   52.4290 C.ar    1  ZINC000409064708    0.1000
     25 F25         4.8783   -1.8525   52.8658 F       1  ZINC000409064708   -0.1400
     26 C26         4.1542   -0.2405   51.2877 C.ar    1  ZINC000409064708   -0.1300
     27 C27         0.0321    1.4548   48.9154 C.ar    1  ZINC000409064708   -0.2200
     28 C28        -1.1496    2.0694   49.2633 C.ar    1  ZINC000409064708   -0.0400
     29 C29        -5.1164    2.9639   51.2480 C.2     1  ZINC000409064708    0.5600
     30 O30        -5.3295    4.1051   51.6132 O.2     1  ZINC000409064708   -0.4600
     31 H31        -9.4791    2.9823   54.7041 H       1  ZINC000409064708    0.0700
     32 H32        -8.1194    4.0061   55.2248 H       1  ZINC000409064708    0.0700
     33 H33        -9.6229    4.7551   54.6361 H       1  ZINC000409064708    0.1100
     34 H34        -8.9622    3.7909   50.6991 H       1  ZINC000409064708    0.1000
     35 H35        -7.2934    4.4011   50.5925 H       1  ZINC000409064708    0.0800
     36 H36        -7.8639    3.1646   49.4463 H       1  ZINC000409064708    0.0800
     37 H37        -2.5970    4.2056   51.2589 H       1  ZINC000409064708    0.1600
     38 H38        -0.4944    2.6381   52.5530 H       1  ZINC000409064708    0.1300
     39 H39         1.6032    1.5290   51.9163 H       1  ZINC000409064708    0.1400
     40 H40         3.9936    1.2315   48.7161 H       1  ZINC000409064708    0.0800
     41 H41         3.1156    2.4870   49.6222 H       1  ZINC000409064708    0.0800
     42 H42         4.8204    3.0644   51.1852 H       1  ZINC000409064708    0.1300
     43 H43         6.0740    2.4746   53.2205 H       1  ZINC000409064708    0.1400
     44 H44         6.1033    0.1457   54.0177 H       1  ZINC000409064708    0.1400
     45 H45         3.6157   -1.0026   50.7440 H       1  ZINC000409064708    0.1400
     46 H46         0.1877    1.1214   47.9001 H       1  ZINC000409064708    0.1300
     47 H47        -1.9190    2.2221   48.5209 H       1  ZINC000409064708    0.1300
@<TRIPOS>BOND
     1     1     2    1
     2     1    31    1
     3     1    32    1
     4     1    33    1
     5     2     3    1
     6     3     4    2
     7     3     5    1
     8     5     6    1
     9     5     7    1
    10     5     8    1
    11     7    34    1
    12     7    35    1
    13     7    36    1
    14     8    29   am
    15     8     9   am
    16     9    10    2
    17     9    11    1
    18    11    12    1
    19    12    13    2
    20    12    29    1
    21    13    14    1
    22    13    37    1
    23    14    28   ar
    24    14    15   ar
    25    15    16   ar
    26    15    38    1
    27    16    17   ar
    28    16    39    1
    29    17    18    1
    30    17    27   ar
    31    18    19    1
    32    19    20    1
    33    19    40    1
    34    19    41    1
    35    20    26   ar
    36    20    21   ar
    37    21    22   ar
    38    21    42    1
    39    22    23   ar
    40    22    43    1
    41    23    24   ar
    42    23    44    1
    43    24    25    1
    44    24    26   ar
    45    26    45    1
    46    27    28   ar
    47    27    46    1
    48    28    47    1
    49    29    30    2
@<TRIPOS>SUBSTRUCTURE
     1 ZINC000409064708        1 TEMP              0 ****  ****    0 ROOT


##########                                Name:    ZINC000494558165
##########                DOCK_Rotatable_Bonds:                  11
##########                         Heavy_Atoms:                  28
##########                    Molecular_Weight:             409.506
##########                DOCK_Rotatable_Bonds:                  11
##########                       Formal_Charge:        -6.55651e-07
##########                     HBond_Acceptors:                   9
##########                        HBond_Donors:                   3
##########                         Heavy_Atoms:                  28
##########                          Grid_Score:          -31.979164
##########                     Grid_vdw_energy:          -32.273426
##########                      Grid_es_energy:            0.294261
##########           Internal_energy_repulsive:           31.617661

@<TRIPOS>MOLECULE
ZINC000494558165
 55 57 1 0 0
SMALL
USER_CHARGES


@<TRIPOS>ATOM
      1 O1         -7.2959    4.6637   55.4951 O.2     1  ZINC000494558165   -0.4400
      2 C2         -6.7294    3.6872   55.0532 C.2     1  ZINC000494558165    0.5100
      3 C3         -6.0052    3.7687   53.7341 C.3     1  ZINC000494558165    0.0300
      4 N4         -6.6452    2.8663   52.7676 N.3     1  ZINC000494558165   -0.5000
      5 C5         -8.1024    3.0514   52.7595 C.3     1  ZINC000494558165    0.0500
      6 C6         -8.7825    1.7650   53.2324 C.3     1  ZINC000494558165   -0.1100
      7 C7        -10.1721    1.6609   52.6008 C.3     1  ZINC000494558165    0.0800
      8 O8        -10.8887    0.5804   53.2017 O.3     1  ZINC000494558165   -0.5700
      9 C9         -6.0834    3.0513   51.4228 C.3     1  ZINC000494558165    0.1200
     10 H10        -6.3918    4.0135   51.0140 H       1  ZINC000494558165    0.1000
     11 C11        -6.5331    1.9050   50.4922 C.3     1  ZINC000494558165   -0.1200
     12 C12        -5.3812    0.8881   50.6387 C.3     1  ZINC000494558165   -0.0900
     13 C13        -4.1699    1.7134   51.0162 C.ar    1  ZINC000494558165   -0.0900
     14 C14        -2.8217    1.4015   50.9697 C.ar    1  ZINC000494558165   -0.1100
     15 C15        -1.8794    2.3282   51.3719 C.ar    1  ZINC000494558165   -0.1100
     16 C16        -2.2828    3.5710   51.8223 C.ar    1  ZINC000494558165   -0.1200
     17 C17        -3.6275    3.8840   51.8695 C.ar    1  ZINC000494558165   -0.1000
     18 C18        -4.5732    2.9592   51.4673 C.ar    1  ZINC000494558165   -0.1300
     19 N19        -6.7423    2.5302   55.7444 N.am    1  ZINC000494558165   -0.6900
     20 C20        -7.3900    2.4573   56.9241 C.2     1  ZINC000494558165    0.7000
     21 O21        -7.9608    3.4352   57.3655 O.2     1  ZINC000494558165   -0.5200
     22 N22        -7.4044    1.2998   57.6145 N.am    1  ZINC000494558165   -0.7300
     23 C23        -8.1098    1.2201   58.8960 C.3     1  ZINC000494558165    0.1700
     24 H24        -7.9064    2.1160   59.4826 H       1  ZINC000494558165    0.1200
     25 C25        -9.6233    1.0974   58.6468 C.3     1  ZINC000494558165   -0.1400
     26 C26       -10.2636    0.6874   59.9980 C.3     1  ZINC000494558165   -0.5800
     27 S27        -9.0944   -0.5766   60.6261 S.o2    1  ZINC000494558165    2.4000
     28 O28        -8.8631   -0.3573   62.0110 O.2     1  ZINC000494558165   -0.9300
     29 O29        -9.4992   -1.8603   60.1707 O.2     1  ZINC000494558165   -0.9300
     30 C30        -7.6367   -0.0256   59.6714 C.3     1  ZINC000494558165   -0.6200
     31 H31        -6.0471    4.7914   53.3592 H       1  ZINC000494558165    0.0700
     32 H32        -4.9648    3.4746   53.8720 H       1  ZINC000494558165    0.1200
     33 H33        -8.3685    3.8700   53.4281 H       1  ZINC000494558165    0.0900
     34 H34        -8.4332    3.2865   51.7478 H       1  ZINC000494558165    0.0400
     35 H35        -8.1822    0.9056   52.9335 H       1  ZINC000494558165    0.0700
     36 H36        -8.8771    1.7821   54.3181 H       1  ZINC000494558165    0.0800
     37 H37       -10.7155    2.5919   52.7628 H       1  ZINC000494558165    0.0500
     38 H38       -10.0722    1.4800   51.5306 H       1  ZINC000494558165    0.0400
     39 H39       -11.8209    0.5376   52.9483 H       1  ZINC000494558165    0.3800
     40 H40        -7.4748    1.4755   50.8338 H       1  ZINC000494558165    0.0900
     41 H41        -6.6151    2.2518   49.4622 H       1  ZINC000494558165    0.0800
     42 H42        -5.6093    0.1691   51.4255 H       1  ZINC000494558165    0.0800
     43 H43        -5.2087    0.3735   49.6934 H       1  ZINC000494558165    0.0800
     44 H44        -2.5057    0.4304   50.6181 H       1  ZINC000494558165    0.1200
     45 H45        -0.8286    2.0819   51.3340 H       1  ZINC000494558165    0.1300
     46 H46        -1.5475    4.2965   52.1376 H       1  ZINC000494558165    0.1200
     47 H47        -3.9420    4.8553   52.2220 H       1  ZINC000494558165    0.1200
     48 H48        -6.2857    1.7500   55.3928 H       1  ZINC000494558165    0.4100
     49 H49        -6.9477    0.5197   57.2629 H       1  ZINC000494558165    0.4000
     50 H50       -10.0263    2.0554   58.3181 H       1  ZINC000494558165    0.1100
     51 H51        -9.8169    0.3327   57.8945 H       1  ZINC000494558165    0.0900
     52 H52       -10.3139    1.5391   60.6765 H       1  ZINC000494558165    0.1400
     53 H53       -11.2525    0.2563   59.8425 H       1  ZINC000494558165    0.1400
     54 H54        -7.3203   -0.8062   58.9796 H       1  ZINC000494558165    0.1500
     55 H55        -6.8211    0.2383   60.3446 H       1  ZINC000494558165    0.1500
@<TRIPOS>BOND
     1     1     2    2
     2     2     3    1
     3     2    19   am
     4     3     4    1
     5     3    31    1
     6     3    32    1
     7     4     5    1
     8     4     9    1
     9     5     6    1
    10     5    33    1
    11     5    34    1
    12     6     7    1
    13     6    35    1
    14     6    36    1
    15     7     8    1
    16     7    37    1
    17     7    38    1
    18     8    39    1
    19     9    10    1
    20     9    18    1
    21     9    11    1
    22    11    12    1
    23    11    40    1
    24    11    41    1
    25    12    13    1
    26    12    42    1
    27    12    43    1
    28    13    18   ar
    29    13    14   ar
    30    14    15   ar
    31    14    44    1
    32    15    16   ar
    33    15    45    1
    34    16    17   ar
    35    16    46    1
    36    17    18   ar
    37    17    47    1
    38    19    20   am
    39    19    48    1
    40    20    21    2
    41    20    22   am
    42    22    23    1
    43    22    49    1
    44    23    24    1
    45    23    30    1
    46    23    25    1
    47    25    26    1
    48    25    50    1
    49    25    51    1
    50    26    27    1
    51    26    52    1
    52    26    53    1
    53    27    28    2
    54    27    29    2
    55    27    30    1
    56    30    54    1
    57    30    55    1
@<TRIPOS>SUBSTRUCTURE
     1 ZINC000494558165        1 TEMP              0 ****  ****    0 ROOT


##########                                Name:    ZINC000504243286
##########                DOCK_Rotatable_Bonds:                   7
##########                         Heavy_Atoms:                  29
##########                    Molecular_Weight:             408.337
##########                DOCK_Rotatable_Bonds:                   7
##########                       Formal_Charge:           0.0299994
##########                     HBond_Acceptors:                  11
##########                        HBond_Donors:                   3
##########                         Heavy_Atoms:                  29
##########                          Grid_Score:          -31.967785
##########                     Grid_vdw_energy:          -29.847511
##########                      Grid_es_energy:           -2.120274
##########           Internal_energy_repulsive:           12.565033

@<TRIPOS>MOLECULE
ZINC000504243286
 44 46 1 0 0
SMALL
USER_CHARGES


@<TRIPOS>ATOM
      1 O1         -3.4818    1.6318   49.0655 O.2     1  ZINC000504243286   -0.5200
      2 C2         -2.7878    1.6231   50.0603 C.2     1  ZINC000504243286    0.5200
      3 C3         -1.2879    1.6960   49.9332 C.3     1  ZINC000504243286   -0.1600
      4 C4         -0.8530    1.0214   48.6307 C.3     1  ZINC000504243286    0.1300
      5 N5          0.6041    1.1026   48.5016 N.pl3   1  ZINC000504243286   -0.7200
      6 C6          1.1996    1.0118   47.2415 C.ar    1  ZINC000504243286    0.3100
      7 C7          0.4240    0.7332   46.1236 C.ar    1  ZINC000504243286   -0.1900
      8 C8          1.0161    0.6446   44.8787 C.ar    1  ZINC000504243286    0.0200
      9 C9          2.3793    0.8330   44.7449 C.ar    1  ZINC000504243286   -0.2400
     10 C10         3.0217    0.7362   43.3851 C.3     1  ZINC000504243286    0.5200
     11 F11         4.3323    0.2662   43.5208 F       1  ZINC000504243286   -0.1700
     12 F12         2.2896   -0.1479   42.5854 F       1  ZINC000504243286   -0.1700
     13 F13         3.0394    2.0007   42.7867 F       1  ZINC000504243286   -0.1700
     14 C14         3.1545    1.1107   45.8561 C.ar    1  ZINC000504243286    0.0400
     15 C15         2.5683    1.2059   47.1026 C.ar    1  ZINC000504243286   -0.1200
     16 N16         3.3987    1.5030   48.2911 N.pl3   1  ZINC000504243286    0.0400
     17 O17         2.9645    2.2221   49.1732 O.2     1  ZINC000504243286   -0.1700
     18 O18         4.5164    1.0286   48.3873 O.2     1  ZINC000504243286   -0.1400
     19 N19        -3.3583    1.5538   51.2793 N.am    1  ZINC000504243286   -0.6700
     20 C20        -4.7524    1.4860   51.3974 C.ar    1  ZINC000504243286    0.1200
     21 C21        -5.4406    0.3816   50.9129 C.ar    1  ZINC000504243286   -0.1000
     22 C22        -6.8130    0.3116   51.0281 C.ar    1  ZINC000504243286   -0.1200
     23 C23        -7.5201    1.3497   51.6314 C.ar    1  ZINC000504243286    0.1300
     24 N24        -8.8891    1.5082   51.8604 N.am    1  ZINC000504243286   -0.6600
     25 C25        -9.1702    2.6677   52.4781 C.2     1  ZINC000504243286    0.5300
     26 O26       -10.2706    3.0646   52.7991 O.2     1  ZINC000504243286   -0.5000
     27 C27        -7.8559    3.3857   52.6988 C.3     1  ZINC000504243286   -0.1200
     28 C28        -6.8228    2.4509   52.1131 C.ar    1  ZINC000504243286   -0.1200
     29 C29        -5.4531    2.5215   52.0052 C.ar    1  ZINC000504243286   -0.0600
     30 H30        -0.9745    2.7399   49.9240 H       1  ZINC000504243286    0.1100
     31 H31        -0.8265    1.1855   50.7785 H       1  ZINC000504243286    0.1100
     32 H32        -1.1588   -0.0247   48.6436 H       1  ZINC000504243286    0.0800
     33 H33        -1.3213    1.5265   47.7860 H       1  ZINC000504243286    0.0900
     34 H34         1.1552    1.2193   49.2912 H       1  ZINC000504243286    0.4100
     35 H35        -0.6408    0.5856   46.2274 H       1  ZINC000504243286    0.1600
     36 H36         0.4136    0.4276   44.0090 H       1  ZINC000504243286    0.1600
     37 H37         4.2192    1.2574   45.7481 H       1  ZINC000504243286    0.1600
     38 H38        -2.8035    1.5509   52.0750 H       1  ZINC000504243286    0.4200
     39 H39        -4.8987   -0.4261   50.4436 H       1  ZINC000504243286    0.1400
     40 H40        -7.3416   -0.5505   50.6490 H       1  ZINC000504243286    0.1300
     41 H41        -9.5595    0.8561   51.6031 H       1  ZINC000504243286    0.4100
     42 H42        -7.8493    4.3402   52.1725 H       1  ZINC000504243286    0.1300
     43 H43        -7.6763    3.5345   53.7636 H       1  ZINC000504243286    0.1300
     44 H44        -4.9236    3.3812   52.3886 H       1  ZINC000504243286    0.1500
@<TRIPOS>BOND
     1     1     2    2
     2     2     3    1
     3     2    19   am
     4     3     4    1
     5     3    30    1
     6     3    31    1
     7     4     5    1
     8     4    32    1
     9     4    33    1
    10     5     6    1
    11     5    34    1
    12     6    15   ar
    13     6     7   ar
    14     7     8   ar
    15     7    35    1
    16     8     9   ar
    17     8    36    1
    18     9    10    1
    19     9    14   ar
    20    10    11    1
    21    10    12    1
    22    10    13    1
    23    14    15   ar
    24    14    37    1
    25    15    16    1
    26    16    17    2
    27    16    18    2
    28    19    20    1
    29    19    38    1
    30    20    29   ar
    31    20    21   ar
    32    21    22   ar
    33    21    39    1
    34    22    23   ar
    35    22    40    1
    36    23    28   ar
    37    23    24    1
    38    24    25   am
    39    24    41    1
    40    25    26    2
    41    25    27    1
    42    27    28    1
    43    27    42    1
    44    27    43    1
    45    28    29   ar
    46    29    44    1
@<TRIPOS>SUBSTRUCTURE
     1 ZINC000504243286        1 TEMP              0 ****  ****    0 ROOT


##########                                Name:    ZINC000740930783
##########                DOCK_Rotatable_Bonds:                  11
##########                         Heavy_Atoms:                  27
##########                    Molecular_Weight:             413.257
##########                DOCK_Rotatable_Bonds:                  11
##########                       Formal_Charge:          -0.0100004
##########                     HBond_Acceptors:                   9
##########                        HBond_Donors:                   4
##########                         Heavy_Atoms:                  27
##########                          Grid_Score:          -31.937050
##########                     Grid_vdw_energy:          -29.459980
##########                      Grid_es_energy:           -2.477069
##########           Internal_energy_repulsive:           12.559290

@<TRIPOS>MOLECULE
ZINC000740930783
 45 46 1 0 0
SMALL
USER_CHARGES


@<TRIPOS>ATOM
      1 C1         -1.1462    3.8399   53.9053 C.3     1  ZINC000740930783    0.0200
      2 O2         -1.0060    4.1231   52.5116 O.3     1  ZINC000740930783   -0.3000
      3 C3         -1.2149    3.0933   51.6482 C.ar    1  ZINC000740930783    0.1200
      4 C4         -2.4504    2.4778   51.5936 C.ar    1  ZINC000740930783   -0.1400
      5 C5         -2.6624    1.4202   50.7051 C.ar    1  ZINC000740930783   -0.0800
      6 C6         -3.9811    0.7596   50.6428 C.2     1  ZINC000740930783    0.5600
      7 O7         -4.0807   -0.3551   50.1676 O.2     1  ZINC000740930783   -0.5300
      8 N8         -5.0745    1.3921   51.1127 N.am    1  ZINC000740930783   -0.7200
      9 C9         -6.3834    0.7372   51.0494 C.3     1  ZINC000740930783    0.0900
     10 C10        -7.3786    1.5004   51.9258 C.3     1  ZINC000740930783    0.1400
     11 H11        -7.0425    1.4768   52.9623 H       1  ZINC000740930783    0.1200
     12 O12        -8.6662    0.8883   51.8284 O.3     1  ZINC000740930783   -0.5500
     13 C13        -7.4656    2.9305   51.4585 C.ar    1  ZINC000740930783   -0.1100
     14 C14        -7.4534    3.2179   50.1068 C.ar    1  ZINC000740930783   -0.1000
     15 C15        -7.5334    4.5299   49.6780 C.ar    1  ZINC000740930783   -0.1100
     16 C16        -7.6247    5.5548   50.6008 C.ar    1  ZINC000740930783   -0.1000
     17 C17        -7.6369    5.2687   51.9532 C.ar    1  ZINC000740930783   -0.1100
     18 C18        -7.5633    3.9557   52.3826 C.ar    1  ZINC000740930783   -0.0300
     19 Cl19       -7.5786    3.5954   54.0807 Cl      1  ZINC000740930783   -0.0600
     20 C20        -1.6243    0.9897   49.8756 C.ar    1  ZINC000740930783   -0.1000
     21 C21        -0.3930    1.6084   49.9349 C.ar    1  ZINC000740930783   -0.0200
     22 Cl22        0.8962    1.0727   48.9031 Cl      1  ZINC000740930783   -0.0300
     23 C23        -0.1842    2.6629   50.8143 C.ar    1  ZINC000740930783    0.0900
     24 O24         1.0299    3.2693   50.8693 O.3     1  ZINC000740930783   -0.2900
     25 C25         1.9192    2.8482   51.9054 C.3     1  ZINC000740930783    0.0400
     26 C26         3.2223    2.3979   51.2969 C.2     1  ZINC000740930783    0.5200
     27 N27         3.6383    1.1263   51.4600 N.am    1  ZINC000740930783   -0.8500
     28 O28         3.8965    3.1796   50.6606 O.2     1  ZINC000740930783   -0.5100
     29 H29        -2.1594    3.4912   54.1050 H       1  ZINC000740930783    0.0600
     30 H30        -0.4329    3.0674   54.1926 H       1  ZINC000740930783    0.0600
     31 H31        -0.9532    4.7450   54.4811 H       1  ZINC000740930783    0.1100
     32 H32        -3.2507    2.8130   52.2366 H       1  ZINC000740930783    0.1600
     33 H33        -4.9948    2.2809   51.4929 H       1  ZINC000740930783    0.4100
     34 H34        -6.7373    0.7315   50.0184 H       1  ZINC000740930783    0.0900
     35 H35        -6.2945   -0.2880   51.4087 H       1  ZINC000740930783    0.0800
     36 H36        -9.0282    0.8742   50.9318 H       1  ZINC000740930783    0.3800
     37 H37        -7.3813    2.4175   49.3854 H       1  ZINC000740930783    0.1300
     38 H38        -7.5238    4.7540   48.6215 H       1  ZINC000740930783    0.1300
     39 H39        -7.6863    6.5796   50.2653 H       1  ZINC000740930783    0.1400
     40 H40        -7.7084    6.0696   52.6741 H       1  ZINC000740930783    0.1400
     41 H41        -1.7856    0.1724   49.1884 H       1  ZINC000740930783    0.1500
     42 H42         2.1041    3.6796   52.5858 H       1  ZINC000740930783    0.0900
     43 H43         1.4702    2.0213   52.4558 H       1  ZINC000740930783    0.0900
     44 H44         4.4765    0.8361   51.0674 H       1  ZINC000740930783    0.4000
     45 H45         3.0996    0.5014   51.9701 H       1  ZINC000740930783    0.4100
@<TRIPOS>BOND
     1     1     2    1
     2     1    29    1
     3     1    30    1
     4     1    31    1
     5     2     3    1
     6     3    23   ar
     7     3     4   ar
     8     4     5   ar
     9     4    32    1
    10     5     6    1
    11     5    20   ar
    12     6     7    2
    13     6     8   am
    14     8     9    1
    15     8    33    1
    16     9    10    1
    17     9    34    1
    18     9    35    1
    19    10    11    1
    20    10    12    1
    21    10    13    1
    22    12    36    1
    23    13    18   ar
    24    13    14   ar
    25    14    15   ar
    26    14    37    1
    27    15    16   ar
    28    15    38    1
    29    16    17   ar
    30    16    39    1
    31    17    18   ar
    32    17    40    1
    33    18    19    1
    34    20    21   ar
    35    20    41    1
    36    21    22    1
    37    21    23   ar
    38    23    24    1
    39    24    25    1
    40    25    26    1
    41    25    42    1
    42    25    43    1
    43    26    27   am
    44    26    28    2
    45    27    44    1
    46    27    45    1
@<TRIPOS>SUBSTRUCTURE
     1 ZINC000740930783        1 TEMP              0 ****  ****    0 ROOT


##########                                Name:    ZINC001199210165
##########                DOCK_Rotatable_Bonds:                   5
##########                         Heavy_Atoms:                  23
##########                    Molecular_Weight:             375.225
##########                DOCK_Rotatable_Bonds:                   5
##########                       Formal_Charge:         -0.00999999
##########                     HBond_Acceptors:                   6
##########                        HBond_Donors:                   2
##########                         Heavy_Atoms:                  23
##########                          Grid_Score:          -31.904707
##########                     Grid_vdw_energy:          -30.666986
##########                      Grid_es_energy:           -1.237720
##########           Internal_energy_repulsive:            6.132263

@<TRIPOS>MOLECULE
ZINC001199210165
 38 40 1 0 0
SMALL
USER_CHARGES


@<TRIPOS>ATOM
      1 C1          1.7653    2.7603   45.4174 C.3     1  ZINC001199210165   -0.1700
      2 C2          1.2868    1.3673   45.0035 C.3     1  ZINC001199210165    0.0800
      3 C3          1.8991    0.9988   43.6507 C.3     1  ZINC001199210165   -0.1500
      4 O4          1.6931    0.4125   45.9862 O.3     1  ZINC001199210165   -0.3000
      5 C5          1.3499    0.6695   47.2735 C.ar    1  ZINC001199210165    0.3300
      6 C6          0.0169    0.8796   47.5995 C.ar    1  ZINC001199210165   -0.1300
      7 C7         -0.3205    1.1429   48.9286 C.ar    1  ZINC001199210165   -0.0600
      8 C8         -1.7292    1.3732   49.3245 C.2     1  ZINC001199210165    0.5700
      9 O9         -2.5309    1.7817   48.5077 O.2     1  ZINC001199210165   -0.4900
     10 N10        -2.1217    1.1297   50.5906 N.am    1  ZINC001199210165   -0.6600
     11 C11        -3.4513    1.3470   50.9643 C.ar    1  ZINC001199210165    0.2000
     12 C12        -3.7845    2.4770   51.7126 C.ar    1  ZINC001199210165   -0.1500
     13 C13        -5.0757    2.7055   52.0857 C.ar    1  ZINC001199210165   -0.0200
     14 C14        -6.0783    1.8015   51.7169 C.ar    1  ZINC001199210165   -0.1700
     15 C15        -7.5197    1.7420   51.9424 C.2     1  ZINC001199210165    0.0900
     16 Br16       -8.5512    3.0061   52.8984 Br      1  ZINC001199210165    0.0600
     17 N17        -7.9685    0.6627   51.3669 N.2     1  ZINC001199210165   -0.2100
     18 N18        -6.9174   -0.0284   50.7554 N.pl3   1  ZINC001199210165   -0.4900
     19 C19        -5.7492    0.6588   50.9616 C.ar    1  ZINC001199210165    0.1500
     20 C20        -4.4271    0.4436   50.5848 C.ar    1  ZINC001199210165   -0.1700
     21 C21         0.7081    1.1830   49.8768 C.ar    1  ZINC001199210165   -0.1900
     22 C22         2.0077    0.9628   49.4679 C.ar    1  ZINC001199210165    0.1400
     23 N23         2.2883    0.7115   48.2039 N.ar    1  ZINC001199210165   -0.5200
     24 H24         2.8523    2.7620   45.4981 H       1  ZINC001199210165    0.0600
     25 H25         1.4554    3.4885   44.6680 H       1  ZINC001199210165    0.0700
     26 H26         1.3291    3.0228   46.3812 H       1  ZINC001199210165    0.0600
     27 H27         0.1998    1.3655   44.9229 H       1  ZINC001199210165    0.0900
     28 H28         2.9861    1.0005   43.7313 H       1  ZINC001199210165    0.0700
     29 H29         1.5581    0.0063   43.3558 H       1  ZINC001199210165    0.0600
     30 H30         1.5892    1.7270   42.9012 H       1  ZINC001199210165    0.0800
     31 H31        -0.7471    0.8404   46.8371 H       1  ZINC001199210165    0.1600
     32 H32        -1.4818    0.8035   51.2426 H       1  ZINC001199210165    0.4100
     33 H33        -3.0128    3.1763   51.9989 H       1  ZINC001199210165    0.1500
     34 H34        -5.3245    3.5824   52.6650 H       1  ZINC001199210165    0.1400
     35 H35        -7.0016   -0.8604   50.2640 H       1  ZINC001199210165    0.4500
     36 H36        -4.1640   -0.4264   50.0015 H       1  ZINC001199210165    0.1400
     37 H37         0.4877    1.3839   50.9148 H       1  ZINC001199210165    0.1400
     38 H38         2.8062    0.9926   50.1943 H       1  ZINC001199210165    0.1700
@<TRIPOS>BOND
     1     1     2    1
     2     1    24    1
     3     1    25    1
     4     1    26    1
     5     2     3    1
     6     2     4    1
     7     2    27    1
     8     3    28    1
     9     3    29    1
    10     3    30    1
    11     4     5    1
    12     5    23   ar
    13     5     6   ar
    14     6     7   ar
    15     6    31    1
    16     7     8    1
    17     7    21   ar
    18     8     9    2
    19     8    10   am
    20    10    11    1
    21    10    32    1
    22    11    20   ar
    23    11    12   ar
    24    12    13   ar
    25    12    33    1
    26    13    14   ar
    27    13    34    1
    28    14    19   ar
    29    14    15    1
    30    15    16    1
    31    15    17    2
    32    17    18    1
    33    18    19    1
    34    18    35    1
    35    19    20   ar
    36    20    36    1
    37    21    22   ar
    38    21    37    1
    39    22    23   ar
    40    22    38    1
@<TRIPOS>SUBSTRUCTURE
     1 ZINC001199210165        1 TEMP              0 ****  ****    0 ROOT


##########                                Name:    ZINC000373864439
##########                DOCK_Rotatable_Bonds:                   7
##########                         Heavy_Atoms:                  23
##########                    Molecular_Weight:              344.45
##########                DOCK_Rotatable_Bonds:                   7
##########                       Formal_Charge:          -0.0300001
##########                     HBond_Acceptors:                   7
##########                        HBond_Donors:                   1
##########                         Heavy_Atoms:                  23
##########                          Grid_Score:          -31.903353
##########                     Grid_vdw_energy:          -31.448790
##########                      Grid_es_energy:           -0.454563
##########           Internal_energy_repulsive:           21.104090

@<TRIPOS>MOLECULE
ZINC000373864439
 48 49 1 0 0
SMALL
USER_CHARGES


@<TRIPOS>ATOM
      1 C1         -8.1039    2.1231   52.2674 C.3     1  ZINC000373864439   -0.1500
      2 C2         -6.5759    2.1890   52.3127 C.3     1  ZINC000373864439   -0.6300
      3 S3         -5.8912    1.3601   50.8517 S.o2    1  ZINC000373864439    2.6100
      4 O4         -6.1489   -0.0364   50.9042 O.2     1  ZINC000373864439   -0.9500
      5 O5         -6.1655    2.1119   49.6775 O.2     1  ZINC000373864439   -0.9600
      6 N6         -4.2503    1.4801   51.0395 N.am    1  ZINC000373864439   -1.1200
      7 C7         -3.3540    0.9107   50.0303 C.3     1  ZINC000373864439    0.1100
      8 C8         -2.0585    1.7233   49.9822 C.3     1  ZINC000373864439    0.0500
      9 N9         -1.2962    1.3590   48.7805 N.3     1  ZINC000373864439   -0.5300
     10 C10         0.1480    1.3842   49.0456 C.3     1  ZINC000373864439    0.0400
     11 C11         0.9020    0.8613   47.8208 C.3     1  ZINC000373864439   -0.1300
     12 C12         0.5708    1.7387   46.6106 C.3     1  ZINC000373864439    0.1800
     13 F13         1.0038    3.0475   46.8496 F       1  ZINC000373864439   -0.2100
     14 C14         1.2645    1.1940   45.3886 C.ar    1  ZINC000373864439   -0.1500
     15 C15         0.5233    0.6513   44.3573 C.ar    1  ZINC000373864439   -0.0700
     16 C16         1.1593    0.1509   43.2358 C.ar    1  ZINC000373864439   -0.1600
     17 C17         2.5380    0.1929   43.1438 C.ar    1  ZINC000373864439   -0.0700
     18 C18         3.2841    0.7353   44.1726 C.ar    1  ZINC000373864439   -0.2100
     19 C19         2.6482    1.2427   45.2961 C.ar    1  ZINC000373864439    0.1400
     20 O20         3.3796    1.7766   46.3094 O.3     1  ZINC000373864439   -0.3100
     21 C21         4.8016    1.7365   46.1741 C.3     1  ZINC000373864439    0.0200
     22 C22        -0.9437    1.7339   46.3856 C.3     1  ZINC000373864439   -0.1300
     23 C23        -1.6442    2.2317   47.6519 C.3     1  ZINC000373864439    0.0600
     24 H24        -8.4224    1.0807   52.2584 H       1  ZINC000373864439    0.0700
     25 H25        -8.5152    2.6212   53.1452 H       1  ZINC000373864439    0.0800
     26 H26        -8.4624    2.6204   51.3661 H       1  ZINC000373864439    0.0700
     27 H27        -6.2573    3.2314   52.3216 H       1  ZINC000373864439    0.1300
     28 H28        -6.2174    1.6917   53.2140 H       1  ZINC000373864439    0.1300
     29 H29        -3.8826    1.9273   51.8178 H       1  ZINC000373864439    0.4200
     30 H30        -3.1251   -0.1231   50.2893 H       1  ZINC000373864439    0.0700
     31 H31        -3.8388    0.9421   49.0545 H       1  ZINC000373864439    0.0900
     32 H32        -2.2972    2.7864   49.9527 H       1  ZINC000373864439    0.0900
     33 H33        -1.4622    1.5093   50.8694 H       1  ZINC000373864439    0.0400
     34 H34         0.4609    2.4071   49.2552 H       1  ZINC000373864439    0.0400
     35 H35         0.3704    0.7530   49.9059 H       1  ZINC000373864439    0.0900
     36 H36         1.9745    0.8948   48.0121 H       1  ZINC000373864439    0.0800
     37 H37         0.5997   -0.1663   47.6188 H       1  ZINC000373864439    0.1000
     38 H38        -0.5539    0.6172   44.4268 H       1  ZINC000373864439    0.1300
     39 H39         0.5780   -0.2737   42.4309 H       1  ZINC000373864439    0.1300
     40 H40         3.0325   -0.1988   42.2672 H       1  ZINC000373864439    0.1300
     41 H41         4.3612    0.7676   44.1004 H       1  ZINC000373864439    0.1300
     42 H42         5.2630    2.1941   47.0492 H       1  ZINC000373864439    0.1000
     43 H43         5.1295    0.7002   46.0906 H       1  ZINC000373864439    0.0600
     44 H44         5.0971    2.2842   45.2792 H       1  ZINC000373864439    0.0600
     45 H45        -1.1898    2.3911   45.5514 H       1  ZINC000373864439    0.0800
     46 H46        -1.2750    0.7201   46.1610 H       1  ZINC000373864439    0.1000
     47 H47        -2.7235    2.2159   47.5000 H       1  ZINC000373864439    0.0800
     48 H48        -1.3230    3.2505   47.8681 H       1  ZINC000373864439    0.0400
@<TRIPOS>BOND
     1     1     2    1
     2     1    24    1
     3     1    25    1
     4     1    26    1
     5     2     3    1
     6     2    27    1
     7     2    28    1
     8     3     4    2
     9     3     5    2
    10     3     6   am
    11     6     7    1
    12     6    29    1
    13     7     8    1
    14     7    30    1
    15     7    31    1
    16     8     9    1
    17     8    32    1
    18     8    33    1
    19     9    23    1
    20     9    10    1
    21    10    11    1
    22    10    34    1
    23    10    35    1
    24    11    12    1
    25    11    36    1
    26    11    37    1
    27    12    13    1
    28    12    14    1
    29    12    22    1
    30    14    19   ar
    31    14    15   ar
    32    15    16   ar
    33    15    38    1
    34    16    17   ar
    35    16    39    1
    36    17    18   ar
    37    17    40    1
    38    18    19   ar
    39    18    41    1
    40    19    20    1
    41    20    21    1
    42    21    42    1
    43    21    43    1
    44    21    44    1
    45    22    23    1
    46    22    45    1
    47    22    46    1
    48    23    47    1
    49    23    48    1
@<TRIPOS>SUBSTRUCTURE
     1 ZINC000373864439        1 TEMP              0 ****  ****    0 ROOT


##########                                Name:    ZINC001065334255
##########                DOCK_Rotatable_Bonds:                   7
##########                         Heavy_Atoms:                  23
##########                    Molecular_Weight:             346.448
##########                DOCK_Rotatable_Bonds:                   7
##########                       Formal_Charge:        -5.81145e-07
##########                     HBond_Acceptors:                   8
##########                        HBond_Donors:                   1
##########                         Heavy_Atoms:                  23
##########                          Grid_Score:          -31.891615
##########                     Grid_vdw_energy:          -30.263266
##########                      Grid_es_energy:           -1.628349
##########           Internal_energy_repulsive:           18.488028

@<TRIPOS>MOLECULE
ZINC001065334255
 49 50 1 0 0
SMALL
USER_CHARGES


@<TRIPOS>ATOM
      1 C1        -13.9437   -0.9747   58.1277 C.3     1  ZINC001065334255   -0.1500
      2 C2        -14.1140   -2.4883   58.2727 C.3     1  ZINC001065334255   -0.0800
      3 C3        -15.3191   -2.9471   57.4493 C.3     1  ZINC001065334255   -0.1500
      4 C4        -12.8534   -3.1940   57.7686 C.3     1  ZINC001065334255   -0.1400
      5 C5        -11.6755   -2.7831   58.6140 C.2     1  ZINC001065334255    0.5100
      6 O6        -11.8166   -2.6065   59.8056 O.2     1  ZINC001065334255   -0.5300
      7 N7        -10.4653   -2.6120   58.0460 N.am    1  ZINC001065334255   -0.7300
      8 C8         -9.3199   -2.2144   58.8683 C.3     1  ZINC001065334255    0.1300
      9 C9         -9.3803   -0.7086   59.1327 C.3     1  ZINC001065334255    0.0700
     10 H10       -10.4208   -0.3963   59.2231 H       1  ZINC001065334255    0.0700
     11 C11        -8.6344   -0.3867   60.4326 C.3     1  ZINC001065334255    0.0800
     12 N12        -8.5451    1.0760   60.5664 N.am    1  ZINC001065334255   -0.6100
     13 C13        -8.9150    1.6922   61.7066 C.2     1  ZINC001065334255    0.5400
     14 O14        -8.8336    2.8989   61.7977 O.2     1  ZINC001065334255   -0.5200
     15 C15        -9.4299    0.8820   62.8682 C.3     1  ZINC001065334255   -0.1100
     16 H16       -10.1582    0.1501   62.5188 H       1  ZINC001065334255    0.1200
     17 C17       -10.0746    1.8095   63.9131 C.3     1  ZINC001065334255   -0.1000
     18 C18       -10.2794    1.0161   65.2190 C.3     1  ZINC001065334255   -0.5900
     19 S19        -8.9720   -0.2632   65.2090 S.o2    1  ZINC001065334255    2.3900
     20 O20        -8.0259    0.0224   66.2301 O.2     1  ZINC001065334255   -0.9300
     21 O21        -9.5721   -1.5493   65.1397 O.2     1  ZINC001065334255   -0.9300
     22 C22        -8.2531    0.1634   63.5773 C.3     1  ZINC001065334255   -0.5900
     23 C23        -8.0394    1.8460   59.4189 C.3     1  ZINC001065334255    0.0600
     24 C24        -8.8144    1.4154   58.1684 C.3     1  ZINC001065334255    0.0500
     25 O25        -8.7641   -0.0084   58.0494 O.3     1  ZINC001065334255   -0.3700
     26 H26       -14.8417   -0.4720   58.4868 H       1  ZINC001065334255    0.0600
     27 H27       -13.0851   -0.6478   58.7144 H       1  ZINC001065334255    0.0500
     28 H28       -13.7829   -0.7260   57.0787 H       1  ZINC001065334255    0.0600
     29 H29       -14.2748   -2.7370   59.3216 H       1  ZINC001065334255    0.0800
     30 H30       -15.1584   -2.6984   56.4002 H       1  ZINC001065334255    0.0500
     31 H31       -15.4404   -4.0253   57.5525 H       1  ZINC001065334255    0.0700
     32 H32       -16.2171   -2.4443   57.8084 H       1  ZINC001065334255    0.0500
     33 H33       -12.9899   -4.2733   57.8355 H       1  ZINC001065334255    0.0900
     34 H34       -12.6710   -2.9144   56.7309 H       1  ZINC001065334255    0.0900
     35 H35       -10.3528   -2.7522   57.0928 H       1  ZINC001065334255    0.4000
     36 H36        -9.3494   -2.7512   59.8164 H       1  ZINC001065334255    0.0900
     37 H37        -8.3953   -2.4543   58.3434 H       1  ZINC001065334255    0.0800
     38 H38        -9.1796   -0.8004   61.2810 H       1  ZINC001065334255    0.1100
     39 H39        -7.6322   -0.8138   60.3961 H       1  ZINC001065334255    0.0900
     40 H40        -9.4204    2.6610   64.1005 H       1  ZINC001065334255    0.1000
     41 H41       -11.0373    2.1636   63.5446 H       1  ZINC001065334255    0.1000
     42 H42       -10.1615    1.6711   66.0823 H       1  ZINC001065334255    0.1500
     43 H43       -11.2648    0.5501   65.2282 H       1  ZINC001065334255    0.1400
     44 H44        -7.9646   -0.7369   63.0344 H       1  ZINC001065334255    0.1400
     45 H45        -7.4032    0.8359   63.6928 H       1  ZINC001065334255    0.1500
     46 H46        -8.1907    2.9108   59.5961 H       1  ZINC001065334255    0.1000
     47 H47        -6.9773    1.6437   59.2805 H       1  ZINC001065334255    0.0900
     48 H48        -9.8526    1.7362   58.2551 H       1  ZINC001065334255    0.0600
     49 H49        -8.3643    1.8706   57.2863 H       1  ZINC001065334255    0.1100
@<TRIPOS>BOND
     1     1     2    1
     2     1    26    1
     3     1    27    1
     4     1    28    1
     5     2     3    1
     6     2     4    1
     7     2    29    1
     8     3    30    1
     9     3    31    1
    10     3    32    1
    11     4     5    1
    12     4    33    1
    13     4    34    1
    14     5     6    2
    15     5     7   am
    16     7     8    1
    17     7    35    1
    18     8     9    1
    19     8    36    1
    20     8    37    1
    21     9    10    1
    22     9    25    1
    23     9    11    1
    24    11    12    1
    25    11    38    1
    26    11    39    1
    27    12    13   am
    28    12    23    1
    29    13    14    2
    30    13    15    1
    31    15    16    1
    32    15    22    1
    33    15    17    1
    34    17    18    1
    35    17    40    1
    36    17    41    1
    37    18    19    1
    38    18    42    1
    39    18    43    1
    40    19    20    2
    41    19    21    2
    42    19    22    1
    43    22    44    1
    44    22    45    1
    45    23    24    1
    46    23    46    1
    47    23    47    1
    48    24    25    1
    49    24    48    1
    50    24    49    1
@<TRIPOS>SUBSTRUCTURE
     1 ZINC001065334255        1 TEMP              0 ****  ****    0 ROOT


##########                                Name:    ZINC000505965769
##########                DOCK_Rotatable_Bonds:                   9
##########                         Heavy_Atoms:                  29
##########                    Molecular_Weight:              419.88
##########                DOCK_Rotatable_Bonds:                   9
##########                       Formal_Charge:               -0.02
##########                     HBond_Acceptors:                   7
##########                        HBond_Donors:                   1
##########                         Heavy_Atoms:                  29
##########                          Grid_Score:          -31.891279
##########                     Grid_vdw_energy:          -30.116858
##########                      Grid_es_energy:           -1.774422
##########           Internal_energy_repulsive:           14.639836

@<TRIPOS>MOLECULE
ZINC000505965769
 52 54 1 0 0
SMALL
USER_CHARGES


@<TRIPOS>ATOM
      1 C1         -5.2430   -0.3872   50.7542 C.3     1  ZINC000505965769    0.0200
      2 O2         -5.0956    0.8690   50.0891 O.3     1  ZINC000505965769   -0.3100
      3 C3         -4.1668    1.7238   50.5862 C.ar    1  ZINC000505965769    0.1800
      4 C4         -4.5506    2.7253   51.4718 C.ar    1  ZINC000505965769   -0.2200
      5 C5         -3.6225    3.5901   51.9777 C.ar    1  ZINC000505965769   -0.0200
      6 C6         -2.2777    3.4711   51.6055 C.ar    1  ZINC000505965769   -0.2100
      7 C7         -1.2783    4.3989   52.1481 C.2     1  ZINC000505965769    0.3900
      8 O8         -1.1346    5.4953   51.6493 O.2     1  ZINC000505965769   -0.4400
      9 C9         -0.4309    3.9897   53.3252 C.3     1  ZINC000505965769   -0.1500
     10 C10        -1.2301    4.1721   54.6170 C.3     1  ZINC000505965769   -0.1300
     11 C11        -0.2824    4.4031   55.7657 C.2     1  ZINC000505965769    0.5200
     12 O12         0.1886    5.5052   55.9510 O.2     1  ZINC000505965769   -0.5300
     13 N13         0.0418    3.3849   56.5871 N.am    1  ZINC000505965769   -0.7200
     14 C14         0.9645    3.6091   57.7027 C.3     1  ZINC000505965769    0.1900
     15 H15         1.0010    4.6733   57.9358 H       1  ZINC000505965769    0.1100
     16 C16         0.4862    2.8463   58.9112 C.ar    1  ZINC000505965769   -0.1000
     17 C17        -0.4548    3.4075   59.7542 C.ar    1  ZINC000505965769   -0.0900
     18 C18        -0.8942    2.7089   60.8627 C.ar    1  ZINC000505965769   -0.1500
     19 C19        -0.3919    1.4463   61.1286 C.ar    1  ZINC000505965769    0.1000
     20 F20        -0.8210    0.7623   62.2118 F       1  ZINC000505965769   -0.1400
     21 C21         0.5502    0.8851   60.2832 C.ar    1  ZINC000505965769   -0.1500
     22 C22         0.9845    1.5836   59.1726 C.ar    1  ZINC000505965769   -0.0600
     23 C23         2.3623    3.1239   57.3137 C.3     1  ZINC000505965769    0.0800
     24 H24         2.3274    2.0790   57.0054 H       1  ZINC000505965769    0.0700
     25 C25         2.9387    4.0017   56.1743 C.3     1  ZINC000505965769   -0.1500
     26 C26         4.4636    3.8009   56.3899 C.3     1  ZINC000505965769   -0.1600
     27 C27         4.5634    3.6736   57.9252 C.3     1  ZINC000505965769    0.0500
     28 O28         3.2714    3.2890   58.4137 O.3     1  ZINC000505965769   -0.3700
     29 C29        -1.8896    2.4619   50.7128 C.ar    1  ZINC000505965769    0.0500
     30 Cl30       -0.2254    2.3051   50.2444 Cl      1  ZINC000505965769   -0.0200
     31 C31        -2.8340    1.5918   50.2128 C.ar    1  ZINC000505965769   -0.1600
     32 H32        -5.5275   -0.2174   51.7926 H       1  ZINC000505965769    0.0600
     33 H33        -6.0161   -0.9731   50.2569 H       1  ZINC000505965769    0.1100
     34 H34        -4.2980   -0.9294   50.7203 H       1  ZINC000505965769    0.0600
     35 H35        -5.5870    2.8197   51.7604 H       1  ZINC000505965769    0.1400
     36 H36        -3.9258    4.3663   52.6647 H       1  ZINC000505965769    0.1500
     37 H37        -0.1441    2.9434   53.2201 H       1  ZINC000505965769    0.1100
     38 H38         0.4646    4.6101   53.3613 H       1  ZINC000505965769    0.1100
     39 H39        -1.8940    5.0306   54.5154 H       1  ZINC000505965769    0.1000
     40 H40        -1.8212    3.2764   54.8082 H       1  ZINC000505965769    0.1000
     41 H41        -0.3359    2.5037   56.4396 H       1  ZINC000505965769    0.4000
     42 H42        -0.8465    4.3923   59.5467 H       1  ZINC000505965769    0.1300
     43 H43        -1.6288    3.1477   61.5217 H       1  ZINC000505965769    0.1400
     44 H44         0.9429   -0.0996   60.4898 H       1  ZINC000505965769    0.1400
     45 H45         1.7191    1.1459   58.5129 H       1  ZINC000505965769    0.1400
     46 H46         2.6278    3.6314   55.1975 H       1  ZINC000505965769    0.0700
     47 H47         2.6580    5.0471   56.3036 H       1  ZINC000505965769    0.1000
     48 H48         4.8075    2.8889   55.9019 H       1  ZINC000505965769    0.0700
     49 H49         5.0228    4.6665   56.0352 H       1  ZINC000505965769    0.0800
     50 H50         5.2977    2.9114   58.1861 H       1  ZINC000505965769    0.0700
     51 H51         4.8532    4.6313   58.3575 H       1  ZINC000505965769    0.0700
     52 H52        -2.5403    0.8125   49.5252 H       1  ZINC000505965769    0.1500
@<TRIPOS>BOND
     1     1     2    1
     2     1    32    1
     3     1    33    1
     4     1    34    1
     5     2     3    1
     6     3    31   ar
     7     3     4   ar
     8     4     5   ar
     9     4    35    1
    10     5     6   ar
    11     5    36    1
    12     6     7    1
    13     6    29   ar
    14     7     8    2
    15     7     9    1
    16     9    10    1
    17     9    37    1
    18     9    38    1
    19    10    11    1
    20    10    39    1
    21    10    40    1
    22    11    12    2
    23    11    13   am
    24    13    14    1
    25    13    41    1
    26    14    15    1
    27    14    16    1
    28    14    23    1
    29    16    22   ar
    30    16    17   ar
    31    17    18   ar
    32    17    42    1
    33    18    19   ar
    34    18    43    1
    35    19    20    1
    36    19    21   ar
    37    21    22   ar
    38    21    44    1
    39    22    45    1
    40    23    24    1
    41    23    28    1
    42    23    25    1
    43    25    26    1
    44    25    46    1
    45    25    47    1
    46    26    27    1
    47    26    48    1
    48    26    49    1
    49    27    28    1
    50    27    50    1
    51    27    51    1
    52    29    30    1
    53    29    31   ar
    54    31    52    1
@<TRIPOS>SUBSTRUCTURE
     1 ZINC000505965769        1 TEMP              0 ****  ****    0 ROOT


##########                                Name:    ZINC001347442583
##########                DOCK_Rotatable_Bonds:                   9
##########                         Heavy_Atoms:                  27
##########                    Molecular_Weight:             370.492
##########                DOCK_Rotatable_Bonds:                   9
##########                       Formal_Charge:          -0.0400009
##########                     HBond_Acceptors:                   5
##########                        HBond_Donors:                   1
##########                         Heavy_Atoms:                  27
##########                          Grid_Score:          -31.873970
##########                     Grid_vdw_energy:          -31.439745
##########                      Grid_es_energy:           -0.434225
##########           Internal_energy_repulsive:            9.799617

@<TRIPOS>MOLECULE
ZINC001347442583
 57 60 1 0 0
SMALL
USER_CHARGES


@<TRIPOS>ATOM
      1 O1         -7.4837    0.9090   50.8739 O.2     1  ZINC001347442583   -0.5400
      2 C2         -6.5430    1.3715   51.4839 C.2     1  ZINC001347442583    0.5400
      3 C3         -5.1735    0.7609   51.3329 C.3     1  ZINC001347442583   -0.1400
      4 C4         -4.3310    1.6244   50.3918 C.3     1  ZINC001347442583   -0.1000
      5 C5         -2.8682    1.1825   50.4668 C.3     1  ZINC001347442583   -0.1100
      6 C6         -2.0691    1.8745   49.3606 C.3     1  ZINC001347442583   -0.0800
      7 C7         -0.6084    1.5347   49.5084 C.ar    1  ZINC001347442583   -0.0800
      8 C8          0.0964    1.0301   48.4315 C.ar    1  ZINC001347442583   -0.1200
      9 C9          1.4363    0.7185   48.5673 C.ar    1  ZINC001347442583   -0.1200
     10 C10         2.0715    0.9117   49.7797 C.ar    1  ZINC001347442583   -0.1300
     11 C11         1.3671    1.4173   50.8562 C.ar    1  ZINC001347442583   -0.1200
     12 C12         0.0282    1.7330   50.7193 C.ar    1  ZINC001347442583   -0.1200
     13 N13        -6.7212    2.4349   52.2925 N.am    1  ZINC001347442583   -0.6300
     14 C14        -5.7453    3.1959   53.1443 C.3     1  ZINC001347442583    0.1200
     15 H15        -4.7155    2.8394   53.1214 H       1  ZINC001347442583    0.1200
     16 C16        -6.4483    3.1319   54.5337 C.3     1  ZINC001347442583   -0.1300
     17 C17        -7.9549    3.1513   54.1761 C.3     1  ZINC001347442583   -0.1300
     18 C18        -7.9557    3.2284   52.6143 C.3     1  ZINC001347442583    0.1200
     19 H19        -8.8731    2.8976   52.1275 H       1  ZINC001347442583    0.1200
     20 C20        -7.5037    4.6820   52.2804 C.3     1  ZINC001347442583    0.1300
     21 H21        -8.0450    5.4028   52.8931 H       1  ZINC001347442583    0.1100
     22 N22        -7.6976    4.9686   50.8568 N.am    1  ZINC001347442583   -0.7200
     23 C23        -7.7028    6.2438   50.4208 C.2     1  ZINC001347442583    0.5300
     24 O24        -7.5453    7.1541   51.2066 O.2     1  ZINC001347442583   -0.5300
     25 C25        -7.9041    6.5387   48.9566 C.3     1  ZINC001347442583   -0.1500
     26 H26        -8.9634    6.6564   48.7285 H       1  ZINC001347442583    0.1100
     27 C27        -7.1038    7.8000   48.5317 C.3     1  ZINC001347442583   -0.1400
     28 C28        -6.8531    7.4981   47.0327 C.3     1  ZINC001347442583    0.0500
     29 O29        -6.6391    6.0793   46.9666 O.3     1  ZINC001347442583   -0.3800
     30 C30        -7.2731    5.4342   48.0819 C.3     1  ZINC001347442583    0.0700
     31 C31        -5.9655    4.6488   52.6256 C.3     1  ZINC001347442583   -0.1400
     32 H32        -4.6896    0.7081   52.3083 H       1  ZINC001347442583    0.0900
     33 H33        -5.2669   -0.2431   50.9188 H       1  ZINC001347442583    0.0900
     34 H34        -4.6937    1.5087   49.3704 H       1  ZINC001347442583    0.0700
     35 H35        -4.4106    2.6699   50.6893 H       1  ZINC001347442583    0.0700
     36 H36        -2.4555    1.4554   51.4381 H       1  ZINC001347442583    0.0600
     37 H37        -2.8079    0.1020   50.3368 H       1  ZINC001347442583    0.0600
     38 H38        -2.4248    1.5341   48.3882 H       1  ZINC001347442583    0.0700
     39 H39        -2.2006    2.9538   49.4382 H       1  ZINC001347442583    0.0700
     40 H40        -0.3999    0.8790   47.4844 H       1  ZINC001347442583    0.1200
     41 H41         1.9866    0.3234   47.7261 H       1  ZINC001347442583    0.1200
     42 H42         3.1182    0.6676   49.8859 H       1  ZINC001347442583    0.1200
     43 H43         1.8633    1.5681   51.8036 H       1  ZINC001347442583    0.1200
     44 H44        -0.5223    2.1280   51.5605 H       1  ZINC001347442583    0.1200
     45 H45        -6.1888    2.2095   55.0533 H       1  ZINC001347442583    0.0700
     46 H46        -6.1858    4.0007   55.1373 H       1  ZINC001347442583    0.0800
     47 H47        -8.4426    2.2385   54.5184 H       1  ZINC001347442583    0.0800
     48 H48        -8.4394    4.0297   54.6023 H       1  ZINC001347442583    0.0800
     49 H49        -7.8223    4.2405   50.2281 H       1  ZINC001347442583    0.4000
     50 H50        -7.7001    8.7040   48.6560 H       1  ZINC001347442583    0.0900
     51 H51        -6.1647    7.8726   49.0802 H       1  ZINC001347442583    0.0900
     52 H52        -7.7240    7.7775   46.4398 H       1  ZINC001347442583    0.0700
     53 H53        -5.9691    8.0308   46.6823 H       1  ZINC001347442583    0.0900
     54 H54        -6.5314    4.8853   48.6621 H       1  ZINC001347442583    0.0700
     55 H55        -8.0441    4.7516   47.7248 H       1  ZINC001347442583    0.0800
     56 H56        -5.7350    5.3582   53.4204 H       1  ZINC001347442583    0.0900
     57 H57        -5.3683    4.8576   51.7380 H       1  ZINC001347442583    0.0800
@<TRIPOS>BOND
     1     1     2    2
     2     2     3    1
     3     2    13   am
     4     3     4    1
     5     3    32    1
     6     3    33    1
     7     4     5    1
     8     4    34    1
     9     4    35    1
    10     5     6    1
    11     5    36    1
    12     5    37    1
    13     6     7    1
    14     6    38    1
    15     6    39    1
    16     7    12   ar
    17     7     8   ar
    18     8     9   ar
    19     8    40    1
    20     9    10   ar
    21     9    41    1
    22    10    11   ar
    23    10    42    1
    24    11    12   ar
    25    11    43    1
    26    12    44    1
    27    13    18    1
    28    13    14    1
    29    14    15    1
    30    14    31    1
    31    14    16    1
    32    16    17    1
    33    16    45    1
    34    16    46    1
    35    17    18    1
    36    17    47    1
    37    17    48    1
    38    18    19    1
    39    18    20    1
    40    20    21    1
    41    20    22    1
    42    20    31    1
    43    22    23   am
    44    22    49    1
    45    23    24    2
    46    23    25    1
    47    25    26    1
    48    25    30    1
    49    25    27    1
    50    27    28    1
    51    27    50    1
    52    27    51    1
    53    28    29    1
    54    28    52    1
    55    28    53    1
    56    29    30    1
    57    30    54    1
    58    30    55    1
    59    31    56    1
    60    31    57    1
@<TRIPOS>SUBSTRUCTURE
     1 ZINC001347442583        1 TEMP              0 ****  ****    0 ROOT


##########                                Name:    ZINC000062882109
##########                DOCK_Rotatable_Bonds:                   8
##########                         Heavy_Atoms:                  31
##########                    Molecular_Weight:             424.497
##########                DOCK_Rotatable_Bonds:                   8
##########                       Formal_Charge:           0.0299993
##########                     HBond_Acceptors:                   7
##########                        HBond_Donors:                   1
##########                         Heavy_Atoms:                  31
##########                          Grid_Score:          -31.871399
##########                     Grid_vdw_energy:          -31.661551
##########                      Grid_es_energy:           -0.209849
##########           Internal_energy_repulsive:          189.965530

@<TRIPOS>MOLECULE
ZINC000062882109
 59 61 1 0 0
SMALL
USER_CHARGES


@<TRIPOS>ATOM
      1 C1         -8.8367    2.0215   56.8667 C.3     1  ZINC000062882109   -0.2000
      2 C2         -9.7787    2.2704   55.7170 C.2     1  ZINC000062882109    0.3900
      3 O3        -10.9667    2.3980   55.9232 O.2     1  ZINC000062882109   -0.4500
      4 C4         -9.2565    2.3587   54.3437 C.ar    1  ZINC000062882109   -0.1300
      5 C5        -10.1285    2.5851   53.2741 C.ar    1  ZINC000062882109   -0.1100
      6 C6         -9.6345    2.6671   51.9888 C.ar    1  ZINC000062882109   -0.0900
      7 C7         -8.2791    2.5262   51.7534 C.ar    1  ZINC000062882109   -0.1800
      8 C8         -7.4044    2.3007   52.8086 C.ar    1  ZINC000062882109    0.1200
      9 O9         -6.0735    2.1632   52.5697 O.3     1  ZINC000062882109   -0.2800
     10 C10        -5.6906    1.7239   51.2649 C.3     1  ZINC000062882109    0.0700
     11 H11        -6.1182    2.3913   50.5167 H       1  ZINC000062882109    0.1000
     12 C12        -6.2058    0.3019   51.0340 C.3     1  ZINC000062882109   -0.1800
     13 C13        -4.1879    1.7385   51.1509 C.2     1  ZINC000062882109    0.5200
     14 O14        -3.6047    0.7760   50.6988 O.2     1  ZINC000062882109   -0.4900
     15 N15        -3.4922    2.8211   51.5514 N.am    1  ZINC000062882109   -0.6600
     16 C16        -2.0952    2.8347   51.4454 C.ar    1  ZINC000062882109    0.1400
     17 C17        -1.3152    3.0713   52.5692 C.ar    1  ZINC000062882109   -0.1000
     18 C18         0.0628    3.0873   52.4685 C.ar    1  ZINC000062882109   -0.1100
     19 C19         0.6741    2.8670   51.2434 C.ar    1  ZINC000062882109    0.0800
     20 O20         2.0309    2.8938   51.1556 O.3     1  ZINC000062882109   -0.3100
     21 C21         2.6384    2.2496   50.0333 C.3     1  ZINC000062882109    0.0500
     22 C22         1.9405    2.7262   48.7516 C.3     1  ZINC000062882109    0.0400
     23 N23         0.5101    2.3973   48.8750 N.am    1  ZINC000062882109   -0.5500
     24 C24        -0.1821    1.8941   47.8338 C.2     1  ZINC000062882109    0.5300
     25 O25        -1.3594    1.6308   47.9587 O.2     1  ZINC000062882109   -0.5100
     26 C26         0.5069    1.6587   46.5143 C.3     1  ZINC000062882109   -0.0800
     27 C27        -0.5267    1.2394   45.4670 C.3     1  ZINC000062882109   -0.1300
     28 C28         1.1970    2.9472   46.0623 C.3     1  ZINC000062882109   -0.1600
     29 C29         1.5497    0.5506   46.6740 C.3     1  ZINC000062882109   -0.1500
     30 C30        -0.1080    2.6259   50.1165 C.ar    1  ZINC000062882109    0.1000
     31 C31        -1.4889    2.6060   50.2173 C.ar    1  ZINC000062882109   -0.1400
     32 C32        -7.8861    2.2225   54.1035 C.ar    1  ZINC000062882109   -0.0900
     33 H33        -9.4015    1.9883   57.7983 H       1  ZINC000062882109    0.0900
     34 H34        -8.3250    1.0706   56.7179 H       1  ZINC000062882109    0.1000
     35 H35        -8.1025    2.8256   56.9154 H       1  ZINC000062882109    0.1000
     36 H36       -11.1876    2.6952   53.4541 H       1  ZINC000062882109    0.1400
     37 H37       -10.3086    2.8415   51.1633 H       1  ZINC000062882109    0.1300
     38 H38        -7.8990    2.5916   50.7446 H       1  ZINC000062882109    0.1300
     39 H39        -7.2926    0.2914   51.1165 H       1  ZINC000062882109    0.0800
     40 H40        -5.9137   -0.0332   50.0387 H       1  ZINC000062882109    0.0800
     41 H41        -5.7782   -0.3655   51.7822 H       1  ZINC000062882109    0.0800
     42 H42        -3.9587    3.5909   51.9130 H       1  ZINC000062882109    0.4100
     43 H43        -1.7870    3.2438   53.5253 H       1  ZINC000062882109    0.1400
     44 H44         0.6651    3.2722   53.3457 H       1  ZINC000062882109    0.1400
     45 H45         3.6962    2.5094   49.9916 H       1  ZINC000062882109    0.1300
     46 H46         2.5291    1.1694   50.1288 H       1  ZINC000062882109    0.0700
     47 H47         2.0642    3.8036   48.6417 H       1  ZINC000062882109    0.0900
     48 H48         2.3645    2.2145   47.8874 H       1  ZINC000062882109    0.1300
     49 H49        -1.2696    2.0288   45.3532 H       1  ZINC000062882109    0.0600
     50 H50        -0.0284    1.0692   44.5126 H       1  ZINC000062882109    0.0700
     51 H51        -1.0183    0.3214   45.7890 H       1  ZINC000062882109    0.0700
     52 H52         1.9333    3.2460   46.8083 H       1  ZINC000062882109    0.0700
     53 H53         1.6952    2.7770   45.1079 H       1  ZINC000062882109    0.0800
     54 H54         0.4541    3.7367   45.9485 H       1  ZINC000062882109    0.0600
     55 H55         1.0454   -0.4074   46.8004 H       1  ZINC000062882109    0.0700
     56 H56         2.1806    0.5147   45.7858 H       1  ZINC000062882109    0.0800
     57 H57         2.1660    0.7552   47.5494 H       1  ZINC000062882109    0.0700
     58 H58        -2.0930    2.4175   49.3421 H       1  ZINC000062882109    0.1800
     59 H59        -7.2067    2.0476   54.9247 H       1  ZINC000062882109    0.1400
@<TRIPOS>BOND
     1     1     2    1
     2     1    33    1
     3     1    34    1
     4     1    35    1
     5     2     3    2
     6     2     4    1
     7     4    32   ar
     8     4     5   ar
     9     5     6   ar
    10     5    36    1
    11     6     7   ar
    12     6    37    1
    13     7     8   ar
    14     7    38    1
    15     8     9    1
    16     8    32   ar
    17     9    10    1
    18    10    11    1
    19    10    12    1
    20    10    13    1
    21    12    39    1
    22    12    40    1
    23    12    41    1
    24    13    14    2
    25    13    15   am
    26    15    16    1
    27    15    42    1
    28    16    31   ar
    29    16    17   ar
    30    17    18   ar
    31    17    43    1
    32    18    19   ar
    33    18    44    1
    34    19    30   ar
    35    19    20    1
    36    20    21    1
    37    21    22    1
    38    21    45    1
    39    21    46    1
    40    22    23    1
    41    22    47    1
    42    22    48    1
    43    23    24   am
    44    23    30    1
    45    24    25    2
    46    24    26    1
    47    26    27    1
    48    26    28    1
    49    26    29    1
    50    27    49    1
    51    27    50    1
    52    27    51    1
    53    28    52    1
    54    28    53    1
    55    28    54    1
    56    29    55    1
    57    29    56    1
    58    29    57    1
    59    30    31   ar
    60    31    58    1
    61    32    59    1
@<TRIPOS>SUBSTRUCTURE
     1 ZINC000062882109        1 TEMP              0 ****  ****    0 ROOT


##########                                Name:    ZINC000328606936
##########                DOCK_Rotatable_Bonds:                   6
##########                         Heavy_Atoms:                  23
##########                    Molecular_Weight:             338.428
##########                DOCK_Rotatable_Bonds:                   6
##########                       Formal_Charge:           0.0100001
##########                     HBond_Acceptors:                   7
##########                        HBond_Donors:                   2
##########                         Heavy_Atoms:                  23
##########                          Grid_Score:          -31.865492
##########                     Grid_vdw_energy:          -31.425774
##########                      Grid_es_energy:           -0.439718
##########           Internal_energy_repulsive:            6.476725

@<TRIPOS>MOLECULE
ZINC000328606936
 45 47 1 0 0
SMALL
USER_CHARGES


@<TRIPOS>ATOM
      1 C1         -1.4736    2.0325   45.1993 C.3     1  <0>        -0.0500
      2 N2         -0.0873    1.8138   45.6331 N.4     1  <0>        -0.3500
      3 H3          0.4096    2.6920   45.6269 H       1  <0>         0.4200
      4 C4          0.5700    0.8729   44.7163 C.3     1  <0>        -0.0900
      5 C5          1.1905    1.6352   43.5739 C.2     1  <0>         0.4900
      6 O6          0.6049    2.5874   43.0872 O.co2   1  <0>        -0.6700
      7 O7          2.2780    1.2999   43.1365 O.co2   1  <0>        -0.6400
      8 C8         -0.0816    1.2575   46.9927 C.3     1  <0>         0.0100
      9 H9         -0.4930    0.2481   46.9900 H       1  <0>         0.1600
     10 C10        -0.8891    2.1637   47.9467 C.3     1  <0>         0.1000
     11 N11        -0.1392    2.1244   49.2238 N.am    1  <0>        -0.6200
     12 C12        -0.6386    2.0704   50.4744 C.2     1  <0>         0.6200
     13 O13         0.1149    2.0433   51.4299 O.2     1  <0>        -0.5100
     14 C14        -2.0891    2.0442   50.6840 C.2     1  <0>        -0.2800
     15 C15        -2.9199    1.0260   50.3293 C.2     1  <0>        -0.0300
     16 C16        -4.2493    1.2483   50.6380 C.2     1  <0>        -0.1200
     17 C17        -4.4817    2.4383   51.2369 C.2     1  <0>        -0.1900
     18 C18        -5.8508    2.9223   51.6763 C.3     1  <0>        -0.0500
     19 C19        -6.9190    2.0765   50.9784 C.3     1  <0>        -0.1200
     20 C20        -6.5843    0.5943   51.1690 C.3     1  <0>        -0.1200
     21 C21        -5.3532    0.2445   50.3311 C.3     1  <0>        -0.0600
     22 S22        -3.0323    3.3180   51.4399 S.3     1  <0>         0.2000
     23 C23         1.2841    2.1579   48.8142 C.3     1  <0>         0.0600
     24 C24         1.3518    1.2511   47.5635 C.3     1  <0>         0.0800
     25 H25         2.0513    1.6615   46.8353 H       1  <0>         0.1000
     26 O26         1.7394   -0.0743   47.9312 O.3     1  <0>        -0.5400
     27 H27        -2.0104    1.0839   45.2059 H       1  <0>         0.1100
     28 H28        -1.9613    2.7307   45.8796 H       1  <0>         0.1100
     29 H29        -1.4778    2.4453   44.1905 H       1  <0>         0.1600
     30 H30         1.3459    0.3258   45.2518 H       1  <0>         0.1200
     31 H31        -0.1668    0.1705   44.3266 H       1  <0>         0.1300
     32 H32        -0.9290    3.1823   47.5606 H       1  <0>         0.1000
     33 H33        -1.8957    1.7690   48.0848 H       1  <0>         0.1200
     34 H34        -2.5714    0.1238   49.8484 H       1  <0>         0.1500
     35 H35        -5.9473    2.8144   52.7566 H       1  <0>         0.0900
     36 H36        -5.9747    3.9691   51.3989 H       1  <0>         0.0800
     37 H37        -7.8950    2.2891   51.4147 H       1  <0>         0.0700
     38 H38        -6.9341    2.3131   49.9145 H       1  <0>         0.0700
     39 H39        -6.3763    0.4004   52.2213 H       1  <0>         0.0700
     40 H40        -7.4291   -0.0141   50.8462 H       1  <0>         0.0700
     41 H41        -5.6067    0.2914   49.2720 H       1  <0>         0.0800
     42 H42        -5.0131   -0.7599   50.5831 H       1  <0>         0.0800
     43 H43         1.5836    3.1755   48.5635 H       1  <0>         0.1000
     44 H44         1.9172    1.7587   49.6067 H       1  <0>         0.1000
     45 H45         1.1164   -0.5159   48.5246 H       1  <0>         0.4000
@<TRIPOS>BOND
     1     1     2    1
     2     1    27    1
     3     1    28    1
     4     1    29    1
     5     2     3    1
     6     2     4    1
     7     2     8    1
     8     4     5    1
     9     4    30    1
    10     4    31    1
    11     5     6   ar
    12     5     7   ar
    13     8     9    1
    14     8    24    1
    15     8    10    1
    16    10    11    1
    17    10    32    1
    18    10    33    1
    19    11    12   am
    20    11    23    1
    21    12    13    2
    22    12    14    1
    23    14    22    1
    24    14    15    2
    25    15    16    1
    26    15    34    1
    27    16    21    1
    28    16    17    2
    29    17    18    1
    30    17    22    1
    31    18    19    1
    32    18    35    1
    33    18    36    1
    34    19    20    1
    35    19    37    1
    36    19    38    1
    37    20    21    1
    38    20    39    1
    39    20    40    1
    40    21    41    1
    41    21    42    1
    42    23    24    1
    43    23    43    1
    44    23    44    1
    45    24    25    1
    46    24    26    1
    47    26    45    1
@<TRIPOS>SUBSTRUCTURE
     1 <0>         1 TEMP              0 ****  ****    0 ROOT


##########                                Name:    ZINC001015666108
##########                DOCK_Rotatable_Bonds:                   7
##########                         Heavy_Atoms:                  25
##########                    Molecular_Weight:             346.429
##########                DOCK_Rotatable_Bonds:                   7
##########                       Formal_Charge:          -0.0199997
##########                     HBond_Acceptors:                   7
##########                        HBond_Donors:                   1
##########                         Heavy_Atoms:                  25
##########                          Grid_Score:          -31.850908
##########                     Grid_vdw_energy:          -31.636482
##########                      Grid_es_energy:           -0.214426
##########           Internal_energy_repulsive:           13.281671

@<TRIPOS>MOLECULE
ZINC001015666108
 51 53 1 0 0
SMALL
USER_CHARGES


@<TRIPOS>ATOM
      1 C1         -7.2995    6.3689   48.1698 C.3     1  ZINC001015666108   -0.1400
      2 C2         -7.3242    5.0506   48.9460 C.3     1  ZINC001015666108   -0.0700
      3 C3         -8.7100    4.8128   49.4881 C.2     1  ZINC001015666108   -0.0700
      4 C4         -9.0577    3.9479   50.4858 C.2     1  ZINC001015666108   -0.0900
      5 C5         -8.1417    3.0756   51.2281 C.2     1  ZINC001015666108    0.6100
      6 O6         -8.2973    2.9062   52.4232 O.2     1  ZINC001015666108   -0.5100
      7 N7         -7.1277    2.4616   50.5868 N.am    1  ZINC001015666108   -0.7200
      8 C8         -6.2116    1.5917   51.3286 C.3     1  ZINC001015666108    0.1400
      9 H9         -6.7344    1.1094   52.1546 H       1  ZINC001015666108    0.1100
     10 C10        -5.6003    0.5290   50.3869 C.3     1  ZINC001015666108   -0.1300
     11 C11        -4.2336    1.1504   50.0042 C.3     1  ZINC001015666108    0.0300
     12 N12        -3.7940    1.8060   51.2623 N.3     1  ZINC001015666108   -0.5100
     13 C13        -2.7812    2.8354   50.9935 C.3     1  ZINC001015666108    0.1700
     14 H14        -3.2551    3.6977   50.5244 H       1  ZINC001015666108    0.0900
     15 C15        -2.1289    3.2651   52.3091 C.3     1  ZINC001015666108   -0.1500
     16 C16        -1.7293    2.2764   50.0704 C.2     1  ZINC001015666108    0.1900
     17 N17        -1.7791    2.2403   48.7606 N.2     1  ZINC001015666108   -0.4800
     18 C18        -0.6309    1.6585   48.3705 C.2     1  ZINC001015666108    0.1800
     19 C19        -0.2070    1.3852   46.9505 C.3     1  ZINC001015666108    0.0000
     20 C20         0.4011    2.6527   46.3468 C.3     1  ZINC001015666108   -0.1500
     21 C21         0.8332    0.2634   46.9357 C.3     1  ZINC001015666108   -0.1500
     22 N22         0.0460    1.3757   49.4431 N.2     1  ZINC001015666108   -0.3800
     23 O23        -0.5650    1.7278   50.4302 O.3     1  ZINC001015666108    0.1000
     24 C24        -5.0132    2.4027   51.8553 C.3     1  ZINC001015666108    0.0300
     25 O25       -10.3913    4.0363   50.6692 O.3     1  ZINC001015666108   -0.1700
     26 C26       -10.8990    4.9338   49.8146 C.2     1  ZINC001015666108    0.0000
     27 C27        -9.8929    5.4419   49.0692 C.2     1  ZINC001015666108   -0.2200
     28 H28        -6.2971    6.5410   47.7778 H       1  ZINC001015666108    0.0600
     29 H29        -8.0088    6.3176   47.3439 H       1  ZINC001015666108    0.0600
     30 H30        -7.5749    7.1874   48.8349 H       1  ZINC001015666108    0.0500
     31 H31        -7.0488    4.2322   48.2809 H       1  ZINC001015666108    0.0900
     32 H32        -6.6148    5.1020   49.7720 H       1  ZINC001015666108    0.0700
     33 H33        -7.0044    2.5958   49.6340 H       1  ZINC001015666108    0.4000
     34 H34        -5.4608   -0.4165   50.9113 H       1  ZINC001015666108    0.0900
     35 H35        -6.2233    0.3928   49.5030 H       1  ZINC001015666108    0.0800
     36 H36        -3.5277    0.3744   49.7079 H       1  ZINC001015666108    0.0800
     37 H37        -4.3546    1.8858   49.2090 H       1  ZINC001015666108    0.0500
     38 H38        -1.6550    2.4028   52.7783 H       1  ZINC001015666108    0.0800
     39 H39        -1.3774    4.0289   52.1097 H       1  ZINC001015666108    0.0700
     40 H40        -2.8896    3.6695   52.9768 H       1  ZINC001015666108    0.0800
     41 H41        -1.0749    1.0837   46.3639 H       1  ZINC001015666108    0.1000
     42 H42         1.2689    2.9543   46.9334 H       1  ZINC001015666108    0.0600
     43 H43         0.7077    2.4551   45.3197 H       1  ZINC001015666108    0.0700
     44 H44        -0.3400    3.4519   46.3574 H       1  ZINC001015666108    0.0600
     45 H45         1.7011    0.5649   47.5223 H       1  ZINC001015666108    0.0600
     46 H46         0.4000   -0.6396   47.3657 H       1  ZINC001015666108    0.0600
     47 H47         1.1398    0.0657   45.9085 H       1  ZINC001015666108    0.0700
     48 H48        -5.1050    3.4439   51.5463 H       1  ZINC001015666108    0.0600
     49 H49        -4.9673    2.3380   52.9424 H       1  ZINC001015666108    0.1000
     50 H50       -11.9404    5.2094   49.7369 H       1  ZINC001015666108    0.2100
     51 H51        -9.9828    6.1871   48.2927 H       1  ZINC001015666108    0.1600
@<TRIPOS>BOND
     1     1     2    1
     2     1    28    1
     3     1    29    1
     4     1    30    1
     5     2     3    1
     6     2    31    1
     7     2    32    1
     8     3    27    1
     9     3     4    2
    10     4     5    1
    11     4    25    1
    12     5     6    2
    13     5     7   am
    14     7     8    1
    15     7    33    1
    16     8     9    1
    17     8    24    1
    18     8    10    1
    19    10    11    1
    20    10    34    1
    21    10    35    1
    22    11    12    1
    23    11    36    1
    24    11    37    1
    25    12    13    1
    26    12    24    1
    27    13    14    1
    28    13    15    1
    29    13    16    1
    30    15    38    1
    31    15    39    1
    32    15    40    1
    33    16    23    1
    34    16    17    2
    35    17    18    1
    36    18    19    1
    37    18    22    2
    38    19    20    1
    39    19    21    1
    40    19    41    1
    41    20    42    1
    42    20    43    1
    43    20    44    1
    44    21    45    1
    45    21    46    1
    46    21    47    1
    47    22    23    1
    48    24    48    1
    49    24    49    1
    50    25    26    1
    51    26    27    2
    52    26    50    1
    53    27    51    1
@<TRIPOS>SUBSTRUCTURE
     1 ZINC001015666108        1 TEMP              0 ****  ****    0 ROOT


##########                                Name:    ZINC001191386213
##########                DOCK_Rotatable_Bonds:                   6
##########                         Heavy_Atoms:                  29
##########                    Molecular_Weight:             392.433
##########                DOCK_Rotatable_Bonds:                   6
##########                       Formal_Charge:               -0.02
##########                     HBond_Acceptors:                   7
##########                        HBond_Donors:                   2
##########                         Heavy_Atoms:                  29
##########                          Grid_Score:          -31.848955
##########                     Grid_vdw_energy:          -30.016363
##########                      Grid_es_energy:           -1.832591
##########           Internal_energy_repulsive:            9.173553

@<TRIPOS>MOLECULE
ZINC001191386213
 50 53 1 0 0
SMALL
USER_CHARGES


@<TRIPOS>ATOM
      1 C1         -8.2119    0.0603   62.8596 C.3     1  ZINC001191386213   -0.1700
      2 C2         -8.7943   -0.0190   61.4719 C.2     1  ZINC001191386213    0.5100
      3 O3         -9.9149    0.3935   61.2601 O.2     1  ZINC001191386213   -0.5200
      4 N4         -8.0698   -0.5484   60.4662 N.am    1  ZINC001191386213   -0.6800
      5 C5         -8.6106   -0.6221   59.1776 C.ar    1  ZINC001191386213    0.1400
      6 C6         -9.2130   -1.7960   58.7430 C.ar    1  ZINC001191386213   -0.1400
      7 C7         -9.7485   -1.8722   57.4712 C.ar    1  ZINC001191386213   -0.1000
      8 C8         -9.6875   -0.7825   56.6257 C.ar    1  ZINC001191386213   -0.1100
      9 C9         -9.0846    0.3989   57.0534 C.ar    1  ZINC001191386213    0.0100
     10 C10        -9.0182    1.5715   56.1454 C.2     1  ZINC001191386213    0.0700
     11 N11        -8.7433    2.8107   56.4942 N.2     1  ZINC001191386213   -0.2500
     12 N12        -8.7651    3.5877   55.4720 N.pl3   1  ZINC001191386213   -0.3800
     13 C13        -9.0683    2.8699   54.3492 C.2     1  ZINC001191386213   -0.0400
     14 C14        -9.1898    3.3893   52.9774 C.2     1  ZINC001191386213    0.6100
     15 O15       -10.2402    3.8736   52.6012 O.2     1  ZINC001191386213   -0.5100
     16 N16        -8.1370    3.3283   52.1381 N.am    1  ZINC001191386213   -0.6200
     17 C17        -8.1203    3.8076   50.7483 C.3     1  ZINC001191386213    0.0800
     18 C18        -6.7187    3.5068   50.1767 C.3     1  ZINC001191386213   -0.1200
     19 C19        -6.2068    2.3652   51.0944 C.3     1  ZINC001191386213   -0.0600
     20 H20        -6.5920    1.3992   50.7681 H       1  ZINC001191386213    0.1000
     21 C21        -4.7010    2.3519   51.1511 C.ar    1  ZINC001191386213   -0.1100
     22 C22        -4.0196    3.4325   51.6776 C.ar    1  ZINC001191386213   -0.0900
     23 C23        -2.6379    3.4206   51.7296 C.ar    1  ZINC001191386213   -0.1300
     24 C24        -1.9367    2.3281   51.2549 C.ar    1  ZINC001191386213   -0.0900
     25 C25        -2.6162    1.2462   50.7274 C.ar    1  ZINC001191386213   -0.1500
     26 C26        -3.9998    1.2542   50.6808 C.ar    1  ZINC001191386213    0.1100
     27 F27        -4.6650    0.1973   50.1654 F       1  ZINC001191386213   -0.1400
     28 C28        -6.8095    2.7759   52.4636 C.3     1  ZINC001191386213    0.1200
     29 C29        -9.2315    1.5591   54.7549 C.2     1  ZINC001191386213   -0.1300
     30 C30        -8.5504    0.4787   58.3361 C.ar    1  ZINC001191386213   -0.1000
     31 H31        -8.9387    0.5143   63.5332 H       1  ZINC001191386213    0.1000
     32 H32        -7.9691   -0.9430   63.2096 H       1  ZINC001191386213    0.0900
     33 H33        -7.3067    0.6671   62.8395 H       1  ZINC001191386213    0.0900
     34 H34        -7.1734   -0.8782   60.6356 H       1  ZINC001191386213    0.4100
     35 H35        -9.2626   -2.6514   59.4005 H       1  ZINC001191386213    0.1300
     36 H36       -10.2159   -2.7869   57.1376 H       1  ZINC001191386213    0.1300
     37 H37       -10.1067   -0.8458   55.6324 H       1  ZINC001191386213    0.1300
     38 H38        -8.5927    4.5420   55.4936 H       1  ZINC001191386213    0.4400
     39 H39        -8.8783    3.2834   50.1662 H       1  ZINC001191386213    0.0700
     40 H40        -8.3080    4.8810   50.7239 H       1  ZINC001191386213    0.0800
     41 H41        -6.7883    3.1685   49.1428 H       1  ZINC001191386213    0.0900
     42 H42        -6.0744    4.3825   50.2546 H       1  ZINC001191386213    0.0900
     43 H43        -4.5663    4.2870   52.0482 H       1  ZINC001191386213    0.1300
     44 H44        -2.1061    4.2656   52.1413 H       1  ZINC001191386213    0.1300
     45 H45        -0.8575    2.3200   51.2958 H       1  ZINC001191386213    0.1300
     46 H46        -2.0681    0.3930   50.3559 H       1  ZINC001191386213    0.1400
     47 H47        -6.1854    3.5309   52.9417 H       1  ZINC001191386213    0.0800
     48 H48        -6.9132    1.9039   53.1093 H       1  ZINC001191386213    0.0900
     49 H49        -9.4770    0.7078   54.1373 H       1  ZINC001191386213    0.1700
     50 H50        -8.0822    1.3922   58.6719 H       1  ZINC001191386213    0.1500
@<TRIPOS>BOND
     1     1     2    1
     2     1    31    1
     3     1    32    1
     4     1    33    1
     5     2     3    2
     6     2     4   am
     7     4     5    1
     8     4    34    1
     9     5    30   ar
    10     5     6   ar
    11     6     7   ar
    12     6    35    1
    13     7     8   ar
    14     7    36    1
    15     8     9   ar
    16     8    37    1
    17     9    10    1
    18     9    30   ar
    19    10    29    1
    20    10    11    2
    21    11    12    1
    22    12    13    1
    23    12    38    1
    24    13    14    1
    25    13    29    2
    26    14    15    2
    27    14    16   am
    28    16    28    1
    29    16    17    1
    30    17    18    1
    31    17    39    1
    32    17    40    1
    33    18    19    1
    34    18    41    1
    35    18    42    1
    36    19    20    1
    37    19    21    1
    38    19    28    1
    39    21    26   ar
    40    21    22   ar
    41    22    23   ar
    42    22    43    1
    43    23    24   ar
    44    23    44    1
    45    24    25   ar
    46    24    45    1
    47    25    26   ar
    48    25    46    1
    49    26    27    1
    50    28    47    1
    51    28    48    1
    52    29    49    1
    53    30    50    1
@<TRIPOS>SUBSTRUCTURE
     1 ZINC001191386213        1 TEMP              0 ****  ****    0 ROOT


##########                                Name:    ZINC000563265674
##########                DOCK_Rotatable_Bonds:                   7
##########                         Heavy_Atoms:                  25
##########                    Molecular_Weight:             386.859
##########                DOCK_Rotatable_Bonds:                   7
##########                       Formal_Charge:          0.00999963
##########                     HBond_Acceptors:                  10
##########                        HBond_Donors:                   2
##########                         Heavy_Atoms:                  25
##########                          Grid_Score:          -31.847185
##########                     Grid_vdw_energy:          -32.071648
##########                      Grid_es_energy:            0.224463
##########           Internal_energy_repulsive:           17.786610

@<TRIPOS>MOLECULE
ZINC000563265674
 44 45 1 0 0
SMALL
USER_CHARGES


@<TRIPOS>ATOM
      1 C1          3.8728   -0.5679   51.9278 C.3     1  ZINC000563265674   -0.0600
      2 C2          3.9582    0.1435   50.6021 C.2     1  ZINC000563265674    0.1700
      3 N3          5.0125    0.2423   49.8489 N.2     1  ZINC000563265674   -0.3800
      4 O4          4.7551    0.8766   48.8475 O.3     1  ZINC000563265674    0.0900
      5 C5          3.4732    1.2542   48.8674 C.2     1  ZINC000563265674    0.1900
      6 C6          2.7577    2.0575   47.8120 C.3     1  ZINC000563265674    0.2100
      7 C7          3.6683    3.1871   47.3264 C.3     1  ZINC000563265674   -0.1400
      8 C8          2.4001    1.1486   46.6344 C.3     1  ZINC000563265674   -0.1800
      9 N9          1.5295    2.6288   48.3804 N.3     1  ZINC000563265674   -0.6600
     10 C10         0.4185    1.6708   48.3030 C.3     1  ZINC000563265674    0.0400
     11 C11        -0.7703    2.2189   49.0495 C.2     1  ZINC000563265674    0.5200
     12 O12        -1.0874    3.3819   48.9148 O.2     1  ZINC000563265674   -0.4900
     13 N13        -1.4811    1.4170   49.8668 N.am    1  ZINC000563265674   -0.6700
     14 C14        -2.5855    1.9261   50.5602 C.ar    1  ZINC000563265674    0.1400
     15 C15        -3.8717    1.5770   50.1722 C.ar    1  ZINC000563265674   -0.0300
     16 C16        -4.9597    2.0807   50.8588 C.ar    1  ZINC000563265674   -0.6400
     17 S17        -6.5925    1.6376   50.3669 S.o2    1  ZINC000563265674    2.5000
     18 C18        -7.5415    1.6190   51.9128 C.3     1  ZINC000563265674   -0.6500
     19 O19        -7.0123    2.7119   49.5369 O.2     1  ZINC000563265674   -0.9300
     20 O20        -6.4574    0.3213   49.8491 O.2     1  ZINC000563265674   -0.9300
     21 C21        -4.7689    2.9319   51.9315 C.ar    1  ZINC000563265674   -0.0300
     22 C22        -3.4890    3.2824   52.3211 C.ar    1  ZINC000563265674   -0.1100
     23 C23        -2.3963    2.7777   51.6423 C.ar    1  ZINC000563265674   -0.0200
     24 Cl24       -0.7899    3.2175   52.1318 Cl      1  ZINC000563265674   -0.0500
     25 N25         2.9558    0.7879   49.9784 N.2     1  ZINC000563265674   -0.4700
     26 H26         3.5939   -1.6089   51.7642 H       1  ZINC000563265674    0.0900
     27 H27         4.8412   -0.5252   52.4262 H       1  ZINC000563265674    0.0900
     28 H28         3.1213   -0.0842   52.5520 H       1  ZINC000563265674    0.0900
     29 H29         4.5797    2.7632   46.9047 H       1  ZINC000563265674    0.0800
     30 H30         3.1508    3.7681   46.5630 H       1  ZINC000563265674    0.0800
     31 H31         3.9231    3.8345   48.1653 H       1  ZINC000563265674    0.0700
     32 H32         1.7514    0.3439   46.9804 H       1  ZINC000563265674    0.0700
     33 H33         1.8826    1.7297   45.8711 H       1  ZINC000563265674    0.0800
     34 H34         3.3114    0.7247   46.2128 H       1  ZINC000563265674    0.0800
     35 H35         1.6785    2.9336   49.3307 H       1  ZINC000563265674    0.3600
     36 H36         0.1494    1.5101   47.2591 H       1  ZINC000563265674    0.1200
     37 H37         0.7231    0.7243   48.7495 H       1  ZINC000563265674    0.0800
     38 H38        -1.2276    0.4869   49.9745 H       1  ZINC000563265674    0.4200
     39 H39        -4.0219    0.9126   49.3342 H       1  ZINC000563265674    0.1700
     40 H40        -7.5088    2.6074   52.3711 H       1  ZINC000563265674    0.1300
     41 H41        -8.5765    1.3510   51.7006 H       1  ZINC000563265674    0.1400
     42 H42        -7.1095    0.8874   52.5956 H       1  ZINC000563265674    0.1400
     43 H43        -5.6213    3.3240   52.4662 H       1  ZINC000563265674    0.1500
     44 H44        -3.3434    3.9478   53.1593 H       1  ZINC000563265674    0.1500
@<TRIPOS>BOND
     1     1     2    1
     2     1    26    1
     3     1    27    1
     4     1    28    1
     5     2    25    1
     6     2     3    2
     7     3     4    1
     8     4     5    1
     9     5     6    1
    10     5    25    2
    11     6     7    1
    12     6     8    1
    13     6     9    1
    14     7    29    1
    15     7    30    1
    16     7    31    1
    17     8    32    1
    18     8    33    1
    19     8    34    1
    20     9    10    1
    21     9    35    1
    22    10    11    1
    23    10    36    1
    24    10    37    1
    25    11    12    2
    26    11    13   am
    27    13    14    1
    28    13    38    1
    29    14    23   ar
    30    14    15   ar
    31    15    16   ar
    32    15    39    1
    33    16    17    1
    34    16    21   ar
    35    17    18    1
    36    17    19    2
    37    17    20    2
    38    18    40    1
    39    18    41    1
    40    18    42    1
    41    21    22   ar
    42    21    43    1
    43    22    23   ar
    44    22    44    1
    45    23    24    1
@<TRIPOS>SUBSTRUCTURE
     1 ZINC000563265674        1 TEMP              0 ****  ****    0 ROOT


##########                                Name:    ZINC001490207225
##########                DOCK_Rotatable_Bonds:                   7
##########                         Heavy_Atoms:                  24
##########                    Molecular_Weight:             334.378
##########                DOCK_Rotatable_Bonds:                   7
##########                       Formal_Charge:           -0.010001
##########                     HBond_Acceptors:                   9
##########                        HBond_Donors:                   3
##########                         Heavy_Atoms:                  24
##########                          Grid_Score:          -31.833702
##########                     Grid_vdw_energy:          -30.560768
##########                      Grid_es_energy:           -1.272933
##########           Internal_energy_repulsive:            7.048602

@<TRIPOS>MOLECULE
ZINC001490207225
 46 48 1 0 0
SMALL
USER_CHARGES


@<TRIPOS>ATOM
      1 C1         -5.6486    0.5547   50.5651 C.3     1  ZINC001490207225    0.0900
      2 N2         -4.4139    1.3194   50.7578 N.pl3   1  ZINC001490207225   -0.3600
      3 C3         -3.1711    0.8793   50.5044 C.2     1  ZINC001490207225    0.1300
      4 C4         -2.2986    1.9020   50.8183 C.2     1  ZINC001490207225   -0.3000
      5 C5         -0.8296    1.8672   50.6977 C.2     1  ZINC001490207225    0.6200
      6 O6         -0.1345    2.0571   51.6771 O.2     1  ZINC001490207225   -0.5400
      7 N7         -0.2573    1.6250   49.5017 N.am    1  ZINC001490207225   -0.6200
      8 C8          1.1847    1.5508   49.2155 C.3     1  ZINC001490207225    0.1100
      9 C9          1.3667    2.0453   47.7710 C.3     1  ZINC001490207225   -0.1100
     10 H10         1.7590    3.0616   47.7325 H       1  ZINC001490207225    0.1000
     11 C11         2.2623    1.0485   47.0056 C.3     1  ZINC001490207225    0.1000
     12 N12         1.5994    0.8792   45.6921 N.am    1  ZINC001490207225   -0.6200
     13 C13         2.1796    0.7816   44.4795 C.2     1  ZINC001490207225    0.5300
     14 O14         3.3874    0.8297   44.3796 O.2     1  ZINC001490207225   -0.5300
     15 C15         1.3278    0.6127   43.2480 C.3     1  ZINC001490207225    0.1200
     16 N16         2.0820   -0.1226   42.2296 N.am    1  ZINC001490207225   -0.7400
     17 C17         2.8092    0.5482   41.3144 C.2     1  ZINC001490207225    0.7100
     18 N18         3.5043   -0.1282   40.3786 N.am    1  ZINC001490207225   -0.8600
     19 O19         2.8383    1.7636   41.3330 O.2     1  ZINC001490207225   -0.5900
     20 C20         0.1541    0.8414   46.0135 C.3     1  ZINC001490207225    0.1100
     21 C21        -0.0371    1.9344   47.1215 C.3     1  ZINC001490207225   -0.0800
     22 C22        -0.5449    3.2568   46.5432 C.3     1  ZINC001490207225   -0.1300
     23 C23        -0.9521    1.3766   48.2280 C.3     1  ZINC001490207225    0.1000
     24 C24        -3.0770    2.9884   51.2766 C.2     1  ZINC001490207225    0.0700
     25 N25        -4.3315    2.6336   51.2312 N.2     1  ZINC001490207225   -0.2900
     26 H26        -6.0222    0.7167   49.5541 H       1  ZINC001490207225    0.0800
     27 H27        -5.4457   -0.5061   50.7119 H       1  ZINC001490207225    0.0900
     28 H28        -6.3965    0.8847   51.2861 H       1  ZINC001490207225    0.1000
     29 H29        -2.9030   -0.0957   50.1250 H       1  ZINC001490207225    0.1900
     30 H30         1.7360    2.1925   49.9028 H       1  ZINC001490207225    0.0900
     31 H31         1.5313    0.5212   49.3048 H       1  ZINC001490207225    0.0800
     32 H32         3.2633    1.4598   46.8756 H       1  ZINC001490207225    0.0900
     33 H33         2.3078    0.0961   47.5337 H       1  ZINC001490207225    0.0900
     34 H34         0.4255    0.0571   43.5036 H       1  ZINC001490207225    0.1000
     35 H35         1.0529    1.5932   42.8590 H       1  ZINC001490207225    0.1000
     36 H36         2.0579   -1.0922   42.2140 H       1  ZINC001490207225    0.4100
     37 H37         4.0286    0.3547   39.7206 H       1  ZINC001490207225    0.4000
     38 H38         3.4802   -1.0977   40.3630 H       1  ZINC001490207225    0.4200
     39 H39        -0.4373    1.0961   45.1341 H       1  ZINC001490207225    0.0900
     40 H40        -0.1259   -0.1431   46.3884 H       1  ZINC001490207225    0.0800
     41 H41        -1.5150    3.0986   46.0720 H       1  ZINC001490207225    0.0700
     42 H42        -0.6452    3.9891   47.3443 H       1  ZINC001490207225    0.0600
     43 H43         0.1637    3.6247   45.8012 H       1  ZINC001490207225    0.0600
     44 H44        -1.0872    0.3031   48.0958 H       1  ZINC001490207225    0.0800
     45 H45        -1.9179    1.8813   48.2046 H       1  ZINC001490207225    0.0900
     46 H46        -2.6998    3.9463   51.6031 H       1  ZINC001490207225    0.2000
@<TRIPOS>BOND
     1     1     2    1
     2     1    26    1
     3     1    27    1
     4     1    28    1
     5     2    25    1
     6     2     3    1
     7     3     4    2
     8     3    29    1
     9     4     5    1
    10     4    24    1
    11     5     6    2
    12     5     7   am
    13     7    23    1
    14     7     8    1
    15     8     9    1
    16     8    30    1
    17     8    31    1
    18     9    10    1
    19     9    21    1
    20     9    11    1
    21    11    12    1
    22    11    32    1
    23    11    33    1
    24    12    13   am
    25    12    20    1
    26    13    14    2
    27    13    15    1
    28    15    16    1
    29    15    34    1
    30    15    35    1
    31    16    17   am
    32    16    36    1
    33    17    18   am
    34    17    19    2
    35    18    37    1
    36    18    38    1
    37    20    21    1
    38    20    39    1
    39    20    40    1
    40    21    22    1
    41    21    23    1
    42    22    41    1
    43    22    42    1
    44    22    43    1
    45    23    44    1
    46    23    45    1
    47    24    25    2
    48    24    46    1
@<TRIPOS>SUBSTRUCTURE
     1 ZINC001490207225        1 TEMP              0 ****  ****    0 ROOT


##########                                Name:    ZINC000477589488
##########                DOCK_Rotatable_Bonds:                   6
##########                         Heavy_Atoms:                  32
##########                    Molecular_Weight:             423.517
##########                DOCK_Rotatable_Bonds:                   6
##########                       Formal_Charge:        -8.19564e-07
##########                     HBond_Acceptors:                   6
##########                        HBond_Donors:                   1
##########                         Heavy_Atoms:                  32
##########                          Grid_Score:          -31.830624
##########                     Grid_vdw_energy:          -31.045755
##########                      Grid_es_energy:           -0.784868
##########           Internal_energy_repulsive:           20.351023

@<TRIPOS>MOLECULE
ZINC000477589488
 57 61 1 0 0
SMALL
USER_CHARGES


@<TRIPOS>ATOM
      1 O1         -8.5431    0.1673   51.8042 O.2     1  ZINC000477589488   -0.5800
      2 C2         -7.9688    1.1610   52.2057 C.2     1  ZINC000477589488    0.7100
      3 N3         -8.3205    1.7128   53.3839 N.am    1  ZINC000477589488   -0.7400
      4 C4         -9.3990    1.1190   54.1779 C.3     1  ZINC000477589488    0.2500
      5 H5         -9.3824    0.0355   54.0605 H       1  ZINC000477589488    0.1100
      6 C6        -10.7254    1.6553   53.7044 C.ar    1  ZINC000477589488   -0.0900
      7 C7        -11.8125    0.8089   53.5917 C.ar    1  ZINC000477589488   -0.1000
      8 C8        -13.0292    1.3008   53.1573 C.ar    1  ZINC000477589488   -0.1200
      9 C9        -13.1589    2.6391   52.8362 C.ar    1  ZINC000477589488   -0.1200
     10 C10       -12.0720    3.4856   52.9498 C.ar    1  ZINC000477589488   -0.1200
     11 C11       -10.8563    2.9946   53.3883 C.ar    1  ZINC000477589488   -0.1000
     12 C12        -9.2051    1.4699   55.6306 C.ar    1  ZINC000477589488   -0.0700
     13 C13        -9.5712    0.5558   56.6329 C.ar    1  ZINC000477589488   -0.0400
     14 C14       -10.1218   -0.6969   56.3125 C.ar    1  ZINC000477589488   -0.1100
     15 C15       -10.4643   -1.5569   57.3099 C.ar    1  ZINC000477589488   -0.1100
     16 C16       -10.2781   -1.2146   58.6482 C.ar    1  ZINC000477589488   -0.1100
     17 C17        -9.7483   -0.0104   58.9963 C.ar    1  ZINC000477589488   -0.1100
     18 C18        -9.3814    0.9038   57.9938 C.ar    1  ZINC000477589488   -0.0500
     19 C19        -8.8309    2.1562   58.3142 C.ar    1  ZINC000477589488   -0.1000
     20 C20        -8.4870    3.0159   57.3164 C.ar    1  ZINC000477589488   -0.1100
     21 C21        -8.6690    2.6718   55.9785 C.ar    1  ZINC000477589488   -0.1100
     22 N22        -6.9766    1.7072   51.4752 N.am    1  ZINC000477589488   -0.6300
     23 C23        -6.2607    2.9019   51.9480 C.3     1  ZINC000477589488    0.1300
     24 C24        -4.7550    2.6248   51.8827 C.3     1  ZINC000477589488    0.0500
     25 N25        -4.3999    2.1837   50.5272 N.3     1  ZINC000477589488   -0.4700
     26 C26        -3.0209    2.0786   50.3826 C.ar    1  ZINC000477589488    0.2500
     27 C27        -2.2188    3.2158   50.4690 C.ar    1  ZINC000477589488   -0.1300
     28 C28        -0.8502    3.0574   50.3177 C.ar    1  ZINC000477589488   -0.0900
     29 C29        -0.3627    1.7784   50.0897 C.ar    1  ZINC000477589488    0.0200
     30 N30        -1.1945    0.7579   50.0226 N.ar    1  ZINC000477589488   -0.2200
     31 N31        -2.4623    0.8963   50.1673 N.ar    1  ZINC000477589488   -0.2800
     32 C32        -5.0628    0.9173   50.1881 C.3     1  ZINC000477589488    0.0400
     33 C33        -6.5770    1.1209   50.1869 C.3     1  ZINC000477589488    0.1200
     34 H34        -7.8596    2.5031   53.7062 H       1  ZINC000477589488    0.3900
     35 H35       -11.7113   -0.2366   53.8425 H       1  ZINC000477589488    0.1100
     36 H36       -13.8784    0.6395   53.0685 H       1  ZINC000477589488    0.1200
     37 H37       -14.1092    3.0232   52.4961 H       1  ZINC000477589488    0.1200
     38 H38       -12.1731    4.5311   52.6985 H       1  ZINC000477589488    0.1200
     39 H39       -10.0071    3.6559   53.4771 H       1  ZINC000477589488    0.1200
     40 H40       -10.2725   -0.9757   55.2800 H       1  ZINC000477589488    0.1300
     41 H41       -10.8871   -2.5190   57.0610 H       1  ZINC000477589488    0.1300
     42 H42       -10.5588   -1.9154   59.4205 H       1  ZINC000477589488    0.1300
     43 H43        -9.6104    0.2414   60.0375 H       1  ZINC000477589488    0.1300
     44 H44        -8.6817    2.4354   59.3468 H       1  ZINC000477589488    0.1300
     45 H45        -8.0644    3.9781   57.5655 H       1  ZINC000477589488    0.1300
     46 H46        -8.3874    3.3722   55.2061 H       1  ZINC000477589488    0.1200
     47 H47        -6.5047    3.7513   51.3100 H       1  ZINC000477589488    0.0800
     48 H48        -6.5489    3.1183   52.9767 H       1  ZINC000477589488    0.1100
     49 H49        -4.2067    3.5354   52.1241 H       1  ZINC000477589488    0.1000
     50 H50        -4.4975    1.8441   52.5984 H       1  ZINC000477589488    0.0600
     51 H51        -2.6504    4.1895   50.6479 H       1  ZINC000477589488    0.1500
     52 H52        -0.1828    3.9046   50.3751 H       1  ZINC000477589488    0.1500
     53 H53         0.6983    1.6189   49.9668 H       1  ZINC000477589488    0.1700
     54 H54        -4.7377    0.5896   49.2007 H       1  ZINC000477589488    0.1000
     55 H55        -4.8009    0.1604   50.9275 H       1  ZINC000477589488    0.0600
     56 H56        -7.0752    0.1613   50.0493 H       1  ZINC000477589488    0.0800
     57 H57        -6.8545    1.7997   49.3806 H       1  ZINC000477589488    0.0900
@<TRIPOS>BOND
     1     1     2    2
     2     2     3   am
     3     2    22   am
     4     3     4    1
     5     3    34    1
     6     4     5    1
     7     4     6    1
     8     4    12    1
     9     6    11   ar
    10     6     7   ar
    11     7     8   ar
    12     7    35    1
    13     8     9   ar
    14     8    36    1
    15     9    10   ar
    16     9    37    1
    17    10    11   ar
    18    10    38    1
    19    11    39    1
    20    12    21   ar
    21    12    13   ar
    22    13    18   ar
    23    13    14   ar
    24    14    15   ar
    25    14    40    1
    26    15    16   ar
    27    15    41    1
    28    16    17   ar
    29    16    42    1
    30    17    18   ar
    31    17    43    1
    32    18    19   ar
    33    19    20   ar
    34    19    44    1
    35    20    21   ar
    36    20    45    1
    37    21    46    1
    38    22    33    1
    39    22    23    1
    40    23    24    1
    41    23    47    1
    42    23    48    1
    43    24    25    1
    44    24    49    1
    45    24    50    1
    46    25    26    1
    47    25    32    1
    48    26    31   ar
    49    26    27   ar
    50    27    28   ar
    51    27    51    1
    52    28    29   ar
    53    28    52    1
    54    29    30   ar
    55    29    53    1
    56    30    31   ar
    57    32    33    1
    58    32    54    1
    59    32    55    1
    60    33    56    1
    61    33    57    1
@<TRIPOS>SUBSTRUCTURE
     1 ZINC000477589488        1 TEMP              0 ****  ****    0 ROOT


##########                                Name:    ZINC000611836474
##########                DOCK_Rotatable_Bonds:                   7
##########                         Heavy_Atoms:                  22
##########                    Molecular_Weight:             366.258
##########                DOCK_Rotatable_Bonds:                   7
##########                       Formal_Charge:          -0.0300004
##########                     HBond_Acceptors:                   5
##########                        HBond_Donors:                   1
##########                         Heavy_Atoms:                  22
##########                          Grid_Score:          -31.830467
##########                     Grid_vdw_energy:          -30.124641
##########                      Grid_es_energy:           -1.705827
##########           Internal_energy_repulsive:           11.759567

@<TRIPOS>MOLECULE
ZINC000611836474
 42 43 1 0 0
SMALL
USER_CHARGES


@<TRIPOS>ATOM
      1 C1         -6.5662    4.5731   50.9096 C.3     1  ZINC000611836474   -0.1500
      2 C2         -5.5244    4.2987   51.9960 C.3     1  ZINC000611836474   -0.1400
      3 C3         -5.9905    3.1293   52.8658 C.3     1  ZINC000611836474    0.1300
      4 N4         -6.1516    1.9351   52.0327 N.pl3   1  ZINC000611836474   -0.3900
      5 N5         -7.3628    1.3027   51.7241 N.2     1  ZINC000611836474   -0.2900
      6 C6         -7.1070    0.2728   50.9587 C.2     1  ZINC000611836474    0.0600
      7 C7         -5.7262    0.2112   50.7519 C.2     1  ZINC000611836474   -0.2800
      8 C8         -5.1579    1.2514   51.4208 C.2     1  ZINC000611836474    0.3000
      9 N9         -3.7970    1.5529   51.4727 N.am    1  ZINC000611836474   -0.6500
     10 C10        -3.0880    1.6661   50.3321 C.2     1  ZINC000611836474    0.5200
     11 O11        -3.6335    1.5074   49.2605 O.2     1  ZINC000611836474   -0.4700
     12 C12        -1.6172    1.9900   50.3882 C.3     1  ZINC000611836474    0.0700
     13 H13        -1.3060    2.0870   51.4283 H       1  ZINC000611836474    0.1100
     14 C14        -1.3564    3.3060   49.6530 C.3     1  ZINC000611836474   -0.1800
     15 O15        -0.8743    0.9406   49.7647 O.3     1  ZINC000611836474   -0.2700
     16 C16         0.4810    1.0296   49.8156 C.ar    1  ZINC000611836474    0.1500
     17 C17         1.1141    1.3083   51.0176 C.ar    1  ZINC000611836474   -0.2000
     18 C18         2.4922    1.3984   51.0669 C.ar    1  ZINC000611836474   -0.0600
     19 C19         3.2401    1.2116   49.9195 C.ar    1  ZINC000611836474   -0.1100
     20 C20         4.7428    1.3110   49.9765 C.3     1  ZINC000611836474   -0.1100
     21 C21         2.6120    0.9331   48.7194 C.ar    1  ZINC000611836474   -0.0500
     22 C22         1.2344    0.8362   48.6656 C.ar    1  ZINC000611836474   -0.1200
     23 Br23        0.3756    0.4555   47.0245 Br      1  ZINC000611836474   -0.0300
     24 H24        -6.2342    5.4062   50.2901 H       1  ZINC000611836474    0.0600
     25 H25        -6.6873    3.6849   50.2896 H       1  ZINC000611836474    0.0600
     26 H26        -7.5193    4.8239   51.3753 H       1  ZINC000611836474    0.0600
     27 H27        -4.5714    4.0479   51.5304 H       1  ZINC000611836474    0.0800
     28 H28        -5.4033    5.1869   52.6160 H       1  ZINC000611836474    0.0600
     29 H29        -5.2489    2.9345   53.6405 H       1  ZINC000611836474    0.0800
     30 H30        -6.9442    3.3797   53.3304 H       1  ZINC000611836474    0.1000
     31 H31        -7.8378   -0.4129   50.5561 H       1  ZINC000611836474    0.1900
     32 H32        -5.2035   -0.5281   50.1631 H       1  ZINC000611836474    0.1700
     33 H33        -3.3610    1.6811   52.3296 H       1  ZINC000611836474    0.4100
     34 H34        -1.9231    4.1065   50.1286 H       1  ZINC000611836474    0.0800
     35 H35        -0.2926    3.5403   49.6936 H       1  ZINC000611836474    0.0800
     36 H36        -1.6676    3.2090   48.6128 H       1  ZINC000611836474    0.0800
     37 H37         0.5305    1.4552   51.9144 H       1  ZINC000611836474    0.1400
     38 H38         2.9854    1.6154   52.0029 H       1  ZINC000611836474    0.1300
     39 H39         5.1639    0.3291   50.1925 H       1  ZINC000611836474    0.0700
     40 H40         5.1201    1.6652   49.0174 H       1  ZINC000611836474    0.0700
     41 H41         5.0310    2.0105   50.7612 H       1  ZINC000611836474    0.0700
     42 H42         3.1985    0.7875   47.8243 H       1  ZINC000611836474    0.1400
@<TRIPOS>BOND
     1     1     2    1
     2     1    24    1
     3     1    25    1
     4     1    26    1
     5     2     3    1
     6     2    27    1
     7     2    28    1
     8     3     4    1
     9     3    29    1
    10     3    30    1
    11     4     8    1
    12     4     5    1
    13     5     6    2
    14     6     7    1
    15     6    31    1
    16     7     8    2
    17     7    32    1
    18     8     9    1
    19     9    10   am
    20     9    33    1
    21    10    11    2
    22    10    12    1
    23    12    13    1
    24    12    14    1
    25    12    15    1
    26    14    34    1
    27    14    35    1
    28    14    36    1
    29    15    16    1
    30    16    22   ar
    31    16    17   ar
    32    17    18   ar
    33    17    37    1
    34    18    19   ar
    35    18    38    1
    36    19    20    1
    37    19    21   ar
    38    20    39    1
    39    20    40    1
    40    20    41    1
    41    21    22   ar
    42    21    42    1
    43    22    23    1
@<TRIPOS>SUBSTRUCTURE
     1 ZINC000611836474        1 TEMP              0 ****  ****    0 ROOT


##########                                Name:    ZINC000550952205
##########                DOCK_Rotatable_Bonds:                   7
##########                         Heavy_Atoms:                  28
##########                    Molecular_Weight:             407.484
##########                DOCK_Rotatable_Bonds:                   7
##########                       Formal_Charge:        -2.68221e-07
##########                     HBond_Acceptors:                   8
##########                        HBond_Donors:                   2
##########                         Heavy_Atoms:                  28
##########                          Grid_Score:          -31.819427
##########                     Grid_vdw_energy:          -32.488430
##########                      Grid_es_energy:            0.669002
##########           Internal_energy_repulsive:            5.996162

@<TRIPOS>MOLECULE
ZINC000550952205
 51 54 1 0 0
SMALL
USER_CHARGES


@<TRIPOS>ATOM
      1 O1          1.0078    1.4084   49.2979 O.2     1  ZINC000550952205   -0.5100
      2 C2          0.0699    1.2846   48.5377 C.2     1  ZINC000550952205    0.5100
      3 N3          0.2828    0.9128   47.2598 N.am    1  ZINC000550952205   -0.7000
      4 C4          1.6469    0.6640   46.7869 C.3     1  ZINC000550952205    0.1200
      5 C5          1.8161    1.2531   45.3850 C.3     1  ZINC000550952205   -0.0900
      6 H6          0.9310    1.0353   44.7870 H       1  ZINC000550952205    0.1000
      7 C7          2.0063    2.7426   45.4823 C.3     1  ZINC000550952205   -0.1300
      8 C8          1.3817    3.4956   44.2921 C.3     1  ZINC000550952205   -0.1200
      9 C9          1.6309    2.7934   42.9436 C.3     1  ZINC000550952205   -0.1300
     10 C10         3.0337    2.2632   42.8210 C.3     1  ZINC000550952205   -0.1500
     11 C11         3.0398    0.7862   43.2653 C.3     1  ZINC000550952205    0.3000
     12 F12         1.8936    0.1583   42.7662 F       1  ZINC000550952205   -0.2000
     13 F13         4.1694    0.1571   42.7311 F       1  ZINC000550952205   -0.2000
     14 C14         3.0603    0.6390   44.7116 C.3     1  ZINC000550952205   -0.1700
     15 C15        -1.3205    1.5382   49.0197 C.2     1  ZINC000550952205    0.5100
     16 O16        -2.2176    1.7121   48.2207 O.2     1  ZINC000550952205   -0.4900
     17 N17        -1.5793    1.5741   50.3419 N.am    1  ZINC000550952205   -0.6400
     18 C18        -2.8808    1.8115   50.7931 C.ar    1  ZINC000550952205    0.1500
     19 C19        -3.1856    3.0030   51.4494 C.ar    1  ZINC000550952205   -0.1200
     20 C20        -4.4483    3.2479   51.8941 C.ar    1  ZINC000550952205   -0.0400
     21 C21        -5.4730    2.2995   51.6988 C.ar    1  ZINC000550952205    0.0800
     22 N22        -6.7701    2.3505   52.0588 N.2     1  ZINC000550952205   -0.4700
     23 C23        -7.5116    1.3506   51.7652 C.2     1  ZINC000550952205    0.1200
     24 C24        -8.9784    1.2564   52.0977 C.3     1  ZINC000550952205   -0.1100
     25 C25        -9.4373    1.8331   53.4385 C.3     1  ZINC000550952205   -0.1500
     26 C26        -9.7792    2.5594   52.1360 C.3     1  ZINC000550952205   -0.1500
     27 S27        -6.6325    0.1368   50.9491 S.3     1  ZINC000550952205    0.1200
     28 C28        -5.1639    1.1043   51.0389 C.ar    1  ZINC000550952205   -0.1700
     29 C29        -3.8699    0.8667   50.5837 C.ar    1  ZINC000550952205   -0.0700
     30 H30        -0.4671    0.8101   46.6532 H       1  ZINC000550952205    0.4200
     31 H31         2.3583    1.1332   47.4664 H       1  ZINC000550952205    0.0800
     32 H32         1.8298   -0.4100   46.7541 H       1  ZINC000550952205    0.0800
     33 H33         1.5465    3.0974   46.4046 H       1  ZINC000550952205    0.0700
     34 H34         3.0738    2.9603   45.5163 H       1  ZINC000550952205    0.0700
     35 H35         0.3066    3.5770   44.4527 H       1  ZINC000550952205    0.0700
     36 H36         1.8054    4.4990   44.2495 H       1  ZINC000550952205    0.0700
     37 H37         0.9305    1.9643   42.8430 H       1  ZINC000550952205    0.0800
     38 H38         1.4508    3.5044   42.1372 H       1  ZINC000550952205    0.0700
     39 H39         3.3631    2.3351   41.7845 H       1  ZINC000550952205    0.0900
     40 H40         3.7007    2.8409   43.4611 H       1  ZINC000550952205    0.1000
     41 H41         3.9484    1.1342   45.1043 H       1  ZINC000550952205    0.1000
     42 H42         3.1120   -0.4217   44.9577 H       1  ZINC000550952205    0.1000
     43 H43        -0.8625    1.4350   50.9803 H       1  ZINC000550952205    0.4300
     44 H44        -2.4114    3.7394   51.6070 H       1  ZINC000550952205    0.1400
     45 H45        -4.6669    4.1761   52.4010 H       1  ZINC000550952205    0.1400
     46 H46        -9.4868    0.3638   51.7330 H       1  ZINC000550952205    0.1300
     47 H47       -10.2477    1.3199   53.9562 H       1  ZINC000550952205    0.1000
     48 H48        -8.6783    2.2807   54.0801 H       1  ZINC000550952205    0.1100
     49 H49        -9.2452    3.4850   51.9207 H       1  ZINC000550952205    0.1000
     50 H50       -10.8146    2.5242   51.7968 H       1  ZINC000550952205    0.1100
     51 H51        -3.6378   -0.0546   50.0703 H       1  ZINC000550952205    0.1400
@<TRIPOS>BOND
     1     1     2    2
     2     2     3   am
     3     2    15    1
     4     3     4    1
     5     3    30    1
     6     4     5    1
     7     4    31    1
     8     4    32    1
     9     5     6    1
    10     5    14    1
    11     5     7    1
    12     7     8    1
    13     7    33    1
    14     7    34    1
    15     8     9    1
    16     8    35    1
    17     8    36    1
    18     9    10    1
    19     9    37    1
    20     9    38    1
    21    10    11    1
    22    10    39    1
    23    10    40    1
    24    11    12    1
    25    11    13    1
    26    11    14    1
    27    14    41    1
    28    14    42    1
    29    15    16    2
    30    15    17   am
    31    17    18    1
    32    17    43    1
    33    18    29   ar
    34    18    19   ar
    35    19    20   ar
    36    19    44    1
    37    20    21   ar
    38    20    45    1
    39    21    28   ar
    40    21    22    1
    41    22    23    2
    42    23    24    1
    43    23    27    1
    44    24    26    1
    45    24    25    1
    46    24    46    1
    47    25    26    1
    48    25    47    1
    49    25    48    1
    50    26    49    1
    51    26    50    1
    52    27    28    1
    53    28    29   ar
    54    29    51    1
@<TRIPOS>SUBSTRUCTURE
     1 ZINC000550952205        1 TEMP              0 ****  ****    0 ROOT


##########                                Name:    ZINC000952280524
##########                DOCK_Rotatable_Bonds:                   9
##########                         Heavy_Atoms:                  25
##########                    Molecular_Weight:             348.486
##########                DOCK_Rotatable_Bonds:                   9
##########                       Formal_Charge:          -0.0100004
##########                     HBond_Acceptors:                   5
##########                        HBond_Donors:                   1
##########                         Heavy_Atoms:                  25
##########                          Grid_Score:          -31.812080
##########                     Grid_vdw_energy:          -30.101473
##########                      Grid_es_energy:           -1.710608
##########           Internal_energy_repulsive:           22.860613

@<TRIPOS>MOLECULE
ZINC000952280524
 57 59 1 0 0
SMALL
USER_CHARGES


@<TRIPOS>ATOM
      1 C1         -6.5955    3.1533   49.8954 C.3     1  ZINC000952280524   -0.1800
      2 C2         -6.6354    2.3549   51.1999 C.3     1  ZINC000952280524    0.1400
      3 C3         -7.4640    3.1146   52.2377 C.3     1  ZINC000952280524   -0.1900
      4 O4         -7.2291    1.0776   50.9587 O.3     1  ZINC000952280524   -0.5500
      5 C5         -5.2109    2.1642   51.7248 C.3     1  ZINC000952280524   -0.1200
      6 C6         -4.3804    1.4633   50.6808 C.2     1  ZINC000952280524    0.5300
      7 O7         -4.8857    0.6218   49.9684 O.2     1  ZINC000952280524   -0.5100
      8 N8         -3.0761    1.7716   50.5387 N.am    1  ZINC000952280524   -0.6300
      9 C9         -2.3396    2.7670   51.3314 C.3     1  ZINC000952280524    0.1000
     10 C10        -0.8910    2.7951   50.8000 C.3     1  ZINC000952280524   -0.1300
     11 C11        -1.0360    2.2226   49.3652 C.3     1  ZINC000952280524   -0.1000
     12 H12        -1.3511    2.9969   48.6656 H       1  ZINC000952280524    0.0900
     13 C13         0.2663    1.5664   48.9024 C.3     1  ZINC000952280524   -0.0700
     14 C14         0.0806    1.0046   47.4911 C.3     1  ZINC000952280524   -0.1300
     15 C15         1.3753    0.3180   47.0446 C.3     1  ZINC000952280524    0.1100
     16 N16         2.4852    1.2723   47.1731 N.am    1  ZINC000952280524   -0.6100
     17 C17         3.2931    1.5310   46.1257 C.2     1  ZINC000952280524    0.5500
     18 O18         4.2083    2.3229   46.2447 O.2     1  ZINC000952280524   -0.5500
     19 C19         3.0677    0.8553   44.8386 C.2     1  ZINC000952280524   -0.2200
     20 C20         3.0765    1.5569   43.7088 C.2     1  ZINC000952280524   -0.0300
     21 C21         2.8474    0.8644   42.3900 C.3     1  ZINC000952280524   -0.1500
     22 C22         3.3474    1.5677   41.1267 C.3     1  ZINC000952280524   -0.1700
     23 C23         4.0752    0.3283   41.6510 C.3     1  ZINC000952280524   -0.1600
     24 C24         2.6971    1.9396   48.4648 C.3     1  ZINC000952280524    0.1000
     25 C25         1.3876    2.6079   48.8953 C.3     1  ZINC000952280524   -0.1300
     26 C26        -2.1500    1.1621   49.5669 C.3     1  ZINC000952280524    0.1100
     27 H27        -6.2240    4.1582   50.0957 H       1  ZINC000952280524    0.0700
     28 H28        -5.9345    2.6564   49.1853 H       1  ZINC000952280524    0.0600
     29 H29        -7.5997    3.2142   49.4759 H       1  ZINC000952280524    0.0600
     30 H30        -8.4788    3.2504   51.8638 H       1  ZINC000952280524    0.0600
     31 H31        -7.4923    2.5458   53.1671 H       1  ZINC000952280524    0.0800
     32 H32        -7.0111    4.0889   52.4218 H       1  ZINC000952280524    0.0600
     33 H33        -6.7553    0.5400   50.3095 H       1  ZINC000952280524    0.3700
     34 H34        -4.7718    3.1371   51.9454 H       1  ZINC000952280524    0.1000
     35 H35        -5.2360    1.5624   52.6333 H       1  ZINC000952280524    0.1000
     36 H36        -2.7976    3.7488   51.2115 H       1  ZINC000952280524    0.0700
     37 H37        -2.3433    2.4798   52.3829 H       1  ZINC000952280524    0.0700
     38 H38        -0.5106    3.8162   50.7711 H       1  ZINC000952280524    0.0800
     39 H39        -0.2457    2.1589   51.4056 H       1  ZINC000952280524    0.0800
     40 H40         0.5271    0.7567   49.5839 H       1  ZINC000952280524    0.0800
     41 H41        -0.7336    0.2800   47.4921 H       1  ZINC000952280524    0.0800
     42 H42        -0.1558    1.8172   46.8042 H       1  ZINC000952280524    0.0700
     43 H43         1.5650   -0.5501   47.6758 H       1  ZINC000952280524    0.0700
     44 H44         1.2825    0.0034   46.0051 H       1  ZINC000952280524    0.0900
     45 H45         2.8950   -0.2104   44.8112 H       1  ZINC000952280524    0.1300
     46 H46         3.2479    2.6228   43.7364 H       1  ZINC000952280524    0.1300
     47 H47         1.9242    0.2900   42.3148 H       1  ZINC000952280524    0.1200
     48 H48         2.7530    1.4563   40.2199 H       1  ZINC000952280524    0.1000
     49 H49         3.8420    2.5313   41.2493 H       1  ZINC000952280524    0.1000
     50 H50         5.0486    0.4764   42.1187 H       1  ZINC000952280524    0.1000
     51 H51         3.9595   -0.5986   41.0893 H       1  ZINC000952280524    0.1000
     52 H52         2.9946    1.2037   49.2118 H       1  ZINC000952280524    0.0700
     53 H53         3.4763    2.6949   48.3623 H       1  ZINC000952280524    0.0900
     54 H54         1.1388    3.4055   48.1952 H       1  ZINC000952280524    0.0700
     55 H55         1.5036    3.0246   49.8958 H       1  ZINC000952280524    0.0800
     56 H56        -1.7278    0.2393   49.9646 H       1  ZINC000952280524    0.0700
     57 H57        -2.6655    0.9697   48.6260 H       1  ZINC000952280524    0.0800
@<TRIPOS>BOND
     1     1     2    1
     2     1    27    1
     3     1    28    1
     4     1    29    1
     5     2     3    1
     6     2     4    1
     7     2     5    1
     8     3    30    1
     9     3    31    1
    10     3    32    1
    11     4    33    1
    12     5     6    1
    13     5    34    1
    14     5    35    1
    15     6     7    2
    16     6     8   am
    17     8    26    1
    18     8     9    1
    19     9    10    1
    20     9    36    1
    21     9    37    1
    22    10    11    1
    23    10    38    1
    24    10    39    1
    25    11    12    1
    26    11    13    1
    27    11    26    1
    28    13    25    1
    29    13    14    1
    30    13    40    1
    31    14    15    1
    32    14    41    1
    33    14    42    1
    34    15    16    1
    35    15    43    1
    36    15    44    1
    37    16    17   am
    38    16    24    1
    39    17    18    2
    40    17    19    1
    41    19    20    2
    42    19    45    1
    43    20    21    1
    44    20    46    1
    45    21    23    1
    46    21    22    1
    47    21    47    1
    48    22    23    1
    49    22    48    1
    50    22    49    1
    51    23    50    1
    52    23    51    1
    53    24    25    1
    54    24    52    1
    55    24    53    1
    56    25    54    1
    57    25    55    1
    58    26    56    1
    59    26    57    1
@<TRIPOS>SUBSTRUCTURE
     1 ZINC000952280524        1 TEMP              0 ****  ****    0 ROOT


##########                                Name:    ZINC001757264545
##########                DOCK_Rotatable_Bonds:                  11
##########                         Heavy_Atoms:                  25
##########                    Molecular_Weight:             344.497
##########                DOCK_Rotatable_Bonds:                  11
##########                       Formal_Charge:          0.00999946
##########                     HBond_Acceptors:                   4
##########                        HBond_Donors:                   2
##########                         Heavy_Atoms:                  25
##########                          Grid_Score:          -31.765980
##########                     Grid_vdw_energy:          -30.619698
##########                      Grid_es_energy:           -1.146281
##########           Internal_energy_repulsive:            9.279835

@<TRIPOS>MOLECULE
ZINC001757264545
 57 57 1 0 0
SMALL
USER_CHARGES


@<TRIPOS>ATOM
      1 C1          2.7579    0.4010   51.5712 C.1     1  ZINC001757264545   -0.2100
      2 C2          1.8444    1.1051   51.3522 C.1     1  ZINC001757264545   -0.1900
      3 C3          0.6990    1.9879   51.0775 C.3     1  ZINC001757264545   -0.0100
      4 C4         -0.0934    1.4402   49.8887 C.3     1  ZINC001757264545   -0.1200
      5 C5         -1.1649    2.4530   49.4800 C.3     1  ZINC001757264545   -0.1200
      6 C6         -2.3818    2.3054   50.3956 C.3     1  ZINC001757264545   -0.1000
      7 C7         -3.3429    1.2724   49.8040 C.3     1  ZINC001757264545   -0.1400
      8 C8         -4.5753    1.1810   50.6665 C.2     1  ZINC001757264545    0.5100
      9 O9         -5.1348    0.1150   50.8137 O.2     1  ZINC001757264545   -0.5400
     10 N10        -5.0559    2.2839   51.2742 N.am    1  ZINC001757264545   -0.7300
     11 C11        -6.2529    2.1946   52.1140 C.3     1  ZINC001757264545    0.1400
     12 H12        -6.2723    1.2281   52.6175 H       1  ZINC001757264545    0.1000
     13 C13        -7.5007    2.3398   51.2406 C.3     1  ZINC001757264545   -0.1300
     14 C14        -8.7509    2.2467   52.1178 C.3     1  ZINC001757264545   -0.1200
     15 C15        -8.7260    3.3650   53.1616 C.3     1  ZINC001757264545   -0.1200
     16 C16        -7.4782    3.2199   54.0349 C.3     1  ZINC001757264545   -0.1300
     17 C17        -6.2281    3.3131   53.1578 C.3     1  ZINC001757264545    0.1400
     18 H18        -6.2087    4.2795   52.6543 H       1  ZINC001757264545    0.1000
     19 N19        -5.0333    3.1740   53.9941 N.am    1  ZINC001757264545   -0.7200
     20 C20        -4.3604    4.2707   54.3955 C.2     1  ZINC001757264545    0.6400
     21 O21        -4.7458    5.3756   54.0646 O.2     1  ZINC001757264545   -0.5200
     22 C22        -3.1915    4.1347   55.2115 C.1     1  ZINC001757264545   -0.2300
     23 C23        -2.2332    4.0232   55.8805 C.1     1  ZINC001757264545   -0.0500
     24 C24        -1.0317    3.8835   56.7193 C.3     1  ZINC001757264545    0.0300
     25 C25         0.2134    4.1754   55.8794 C.3     1  ZINC001757264545   -0.1400
     26 C26        -1.1049    4.8730   57.8839 C.3     1  ZINC001757264545   -0.1400
     27 C27        -0.9548    2.4567   57.2664 C.3     1  ZINC001757264545   -0.1400
     28 H28         3.5749   -0.2287   51.7671 H       1  ZINC001757264545    0.2200
     29 H29         1.0600    2.9893   50.8431 H       1  ZINC001757264545    0.0900
     30 H30         0.0543    2.0303   51.9554 H       1  ZINC001757264545    0.0900
     31 H31        -0.5697    0.5014   50.1711 H       1  ZINC001757264545    0.0700
     32 H32         0.5817    1.2675   49.0507 H       1  ZINC001757264545    0.0700
     33 H33        -1.4628    2.2701   48.4475 H       1  ZINC001757264545    0.0700
     34 H34        -0.7636    3.4625   49.5690 H       1  ZINC001757264545    0.0700
     35 H35        -2.8896    3.2660   50.4828 H       1  ZINC001757264545    0.0700
     36 H36        -2.0563    1.9756   51.3822 H       1  ZINC001757264545    0.0700
     37 H37        -2.8528    0.2995   49.7666 H       1  ZINC001757264545    0.0900
     38 H38        -3.6264    1.5753   48.7961 H       1  ZINC001757264545    0.0900
     39 H39        -4.6091    3.1366   51.1554 H       1  ZINC001757264545    0.4000
     40 H40        -7.4813    3.3064   50.7371 H       1  ZINC001757264545    0.0700
     41 H41        -7.5184    1.5430   50.4970 H       1  ZINC001757264545    0.0800
     42 H42        -9.6398    2.3501   51.4955 H       1  ZINC001757264545    0.0700
     43 H43        -8.7702    1.2801   52.6213 H       1  ZINC001757264545    0.0700
     44 H44        -9.6167    3.2987   53.7864 H       1  ZINC001757264545    0.0700
     45 H45        -8.7066    4.3316   52.6580 H       1  ZINC001757264545    0.0700
     46 H46        -7.4976    2.2533   54.5385 H       1  ZINC001757264545    0.0700
     47 H47        -7.4605    4.0167   54.7785 H       1  ZINC001757264545    0.0800
     48 H48        -4.7265    2.2928   54.2589 H       1  ZINC001757264545    0.4000
     49 H49         0.1586    5.1919   55.4896 H       1  ZINC001757264545    0.0600
     50 H50         1.1031    4.0720   56.5005 H       1  ZINC001757264545    0.0700
     51 H51         0.2654    3.4705   55.0497 H       1  ZINC001757264545    0.0600
     52 H52        -1.9918    4.6651   58.4822 H       1  ZINC001757264545    0.0600
     53 H53        -0.2152    4.7696   58.5051 H       1  ZINC001757264545    0.0700
     54 H54        -1.1596    5.8895   57.4941 H       1  ZINC001757264545    0.0600
     55 H55        -0.9027    1.7517   56.4367 H       1  ZINC001757264545    0.0600
     56 H56        -0.0650    2.3533   57.8876 H       1  ZINC001757264545    0.0700
     57 H57        -1.8418    2.2487   57.8647 H       1  ZINC001757264545    0.0600
@<TRIPOS>BOND
     1     1     2    3
     2     1    28    1
     3     2     3    1
     4     3     4    1
     5     3    29    1
     6     3    30    1
     7     4     5    1
     8     4    31    1
     9     4    32    1
    10     5     6    1
    11     5    33    1
    12     5    34    1
    13     6     7    1
    14     6    35    1
    15     6    36    1
    16     7     8    1
    17     7    37    1
    18     7    38    1
    19     8     9    2
    20     8    10   am
    21    10    11    1
    22    10    39    1
    23    11    12    1
    24    11    17    1
    25    11    13    1
    26    13    14    1
    27    13    40    1
    28    13    41    1
    29    14    15    1
    30    14    42    1
    31    14    43    1
    32    15    16    1
    33    15    44    1
    34    15    45    1
    35    16    17    1
    36    16    46    1
    37    16    47    1
    38    17    18    1
    39    17    19    1
    40    19    20   am
    41    19    48    1
    42    20    21    2
    43    20    22    1
    44    22    23    3
    45    23    24    1
    46    24    25    1
    47    24    26    1
    48    24    27    1
    49    25    49    1
    50    25    50    1
    51    25    51    1
    52    26    52    1
    53    26    53    1
    54    26    54    1
    55    27    55    1
    56    27    56    1
    57    27    57    1
@<TRIPOS>SUBSTRUCTURE
     1 ZINC001757264545        1 TEMP              0 ****  ****    0 ROOT


##########                                Name:    ZINC000821177065
##########                DOCK_Rotatable_Bonds:                  10
##########                         Heavy_Atoms:                  25
##########                    Molecular_Weight:             341.413
##########                DOCK_Rotatable_Bonds:                  10
##########                       Formal_Charge:          0.00999917
##########                     HBond_Acceptors:                   7
##########                        HBond_Donors:                   3
##########                         Heavy_Atoms:                  25
##########                          Grid_Score:          -31.750565
##########                     Grid_vdw_energy:          -30.579025
##########                      Grid_es_energy:           -1.171538
##########           Internal_energy_repulsive:           25.492851

@<TRIPOS>MOLECULE
ZINC000821177065
 48 51 1 0 0
SMALL
USER_CHARGES


@<TRIPOS>ATOM
      1 O1         -0.2596    2.8867   46.7861 O.2     1  ZINC000821177065   -0.5600
      2 C2         -0.2720    1.6934   46.5531 C.2     1  ZINC000821177065    0.7100
      3 N3          0.0915    1.2405   45.3369 N.am    1  ZINC000821177065   -0.7300
      4 C4          0.4959    2.1863   44.2937 C.3     1  ZINC000821177065    0.1200
      5 C5          2.0082    2.0942   44.0802 C.3     1  ZINC000821177065    0.1900
      6 O6          2.6697    2.1057   45.3468 O.3     1  ZINC000821177065   -0.5400
      7 C7          2.3410    0.7957   43.3428 C.3     1  ZINC000821177065   -0.1500
      8 C8          2.6233    0.8880   41.8419 C.3     1  ZINC000821177065   -0.1600
      9 C9          3.7693    0.6257   42.8212 C.3     1  ZINC000821177065   -0.1700
     10 C10         2.4794    3.2885   43.2479 C.3     1  ZINC000821177065   -0.1800
     11 C11         1.4219    4.0565   42.4526 C.3     1  ZINC000821177065   -0.1900
     12 C12         2.0430    4.6827   43.7027 C.3     1  ZINC000821177065   -0.1700
     13 N13        -0.6440    0.8232   47.5127 N.am    1  ZINC000821177065   -0.6500
     14 C14        -1.0221    1.2944   48.7778 C.2     1  ZINC000821177065    0.3200
     15 N15        -2.2165    1.7188   49.1169 N.2     1  ZINC000821177065   -0.3200
     16 N16        -2.1784    2.1004   50.4641 N.pl3   1  ZINC000821177065   -0.3600
     17 C17        -3.3015    2.6319   51.2401 C.3     1  ZINC000821177065    0.1900
     18 C18        -4.4980    1.7310   51.0738 C.ar    1  ZINC000821177065    0.1100
     19 C19        -5.7705    2.2586   51.1824 C.ar    1  ZINC000821177065   -0.1500
     20 C20        -6.8648    1.4211   51.0273 C.ar    1  ZINC000821177065   -0.0700
     21 C21        -6.6367    0.0786   50.7676 C.ar    1  ZINC000821177065   -0.1700
     22 C22        -5.3352   -0.3773   50.6726 C.ar    1  ZINC000821177065    0.1000
     23 N23        -4.3185    0.4490   50.8209 N.ar    1  ZINC000821177065   -0.4700
     24 C24        -0.9261    1.8921   50.9224 C.2     1  ZINC000821177065    0.0700
     25 C25        -0.1905    1.3891   49.9051 C.2     1  ZINC000821177065   -0.2600
     26 H26         0.0855    0.2882   45.1523 H       1  ZINC000821177065    0.4000
     27 H27        -0.0178    1.9430   43.3637 H       1  ZINC000821177065    0.0700
     28 H28         0.2333    3.1989   44.5998 H       1  ZINC000821177065    0.0800
     29 H29         3.6312    2.1894   45.2877 H       1  ZINC000821177065    0.3800
     30 H30         1.8280   -0.0954   43.7049 H       1  ZINC000821177065    0.1100
     31 H31         2.2960    0.0577   41.2162 H       1  ZINC000821177065    0.0900
     32 H32         2.5719    1.8739   41.3799 H       1  ZINC000821177065    0.1100
     33 H33         4.4718    1.4389   43.0033 H       1  ZINC000821177065    0.1000
     34 H34         4.1958   -0.3772   42.8397 H       1  ZINC000821177065    0.0900
     35 H35         3.4704    3.1909   42.8048 H       1  ZINC000821177065    0.1100
     36 H36         1.7170    4.4643   41.4858 H       1  ZINC000821177065    0.1000
     37 H37         0.3904    3.7110   42.5222 H       1  ZINC000821177065    0.1100
     38 H38         1.4203    4.7491   44.5948 H       1  ZINC000821177065    0.0900
     39 H39         2.7469    5.5023   43.5584 H       1  ZINC000821177065    0.1000
     40 H40        -0.6500   -0.1290   47.3280 H       1  ZINC000821177065    0.4100
     41 H41        -3.0256    2.6787   52.2935 H       1  ZINC000821177065    0.1000
     42 H42        -3.5478    3.6324   50.8843 H       1  ZINC000821177065    0.1200
     43 H43        -5.9111    3.3099   51.3859 H       1  ZINC000821177065    0.1400
     44 H44        -7.8710    1.8055   51.1071 H       1  ZINC000821177065    0.1400
     45 H45        -7.4653   -0.6026   50.6414 H       1  ZINC000821177065    0.1400
     46 H46        -5.1490   -1.4219   50.4710 H       1  ZINC000821177065    0.1600
     47 H47        -0.5750    2.0880   51.9247 H       1  ZINC000821177065    0.1800
     48 H48         0.8534    1.1156   49.9499 H       1  ZINC000821177065    0.1700
@<TRIPOS>BOND
     1     1     2    2
     2     2     3   am
     3     2    13   am
     4     3     4    1
     5     3    26    1
     6     4     5    1
     7     4    27    1
     8     4    28    1
     9     5     6    1
    10     5     7    1
    11     5    10    1
    12     6    29    1
    13     7     9    1
    14     7     8    1
    15     7    30    1
    16     8     9    1
    17     8    31    1
    18     8    32    1
    19     9    33    1
    20     9    34    1
    21    10    12    1
    22    10    11    1
    23    10    35    1
    24    11    12    1
    25    11    36    1
    26    11    37    1
    27    12    38    1
    28    12    39    1
    29    13    14    1
    30    13    40    1
    31    14    25    1
    32    14    15    2
    33    15    16    1
    34    16    17    1
    35    16    24    1
    36    17    18    1
    37    17    41    1
    38    17    42    1
    39    18    23   ar
    40    18    19   ar
    41    19    20   ar
    42    19    43    1
    43    20    21   ar
    44    20    44    1
    45    21    22   ar
    46    21    45    1
    47    22    23   ar
    48    22    46    1
    49    24    25    2
    50    24    47    1
    51    25    48    1
@<TRIPOS>SUBSTRUCTURE
     1 ZINC000821177065        1 TEMP              0 ****  ****    0 ROOT


##########                                Name:    ZINC000284209281
##########                DOCK_Rotatable_Bonds:                   8
##########                         Heavy_Atoms:                  26
##########                    Molecular_Weight:             353.424
##########                DOCK_Rotatable_Bonds:                   8
##########                       Formal_Charge:          0.00999954
##########                     HBond_Acceptors:                   7
##########                        HBond_Donors:                   1
##########                         Heavy_Atoms:                  26
##########                          Grid_Score:          -31.746290
##########                     Grid_vdw_energy:          -31.806530
##########                      Grid_es_energy:            0.060240
##########           Internal_energy_repulsive:           10.410937

@<TRIPOS>MOLECULE
ZINC000284209281
 49 51 1 0 0
SMALL
USER_CHARGES


@<TRIPOS>ATOM
      1 O1         -1.1086    0.9313   49.5991 O.2     1  <0>        -0.5100
      2 C2         -1.4731    2.0529   49.3133 C.2     1  <0>         0.5100
      3 N3         -1.3231    2.5100   48.0543 N.am    1  <0>        -0.7000
      4 C4         -0.7144    1.6550   47.0323 C.3     1  <0>         0.1200
      5 C5         -0.9702    2.2539   45.6478 C.3     1  <0>        -0.1000
      6 C6         -0.4455    1.3171   44.5905 C.ar    1  <0>        -0.0400
      7 C7          0.8428    1.4544   44.0965 C.ar    1  <0>        -0.1700
      8 C8          1.2896    0.5767   43.1271 C.ar    1  <0>         0.1000
      9 N9          0.5062   -0.3816   42.6723 N.ar    1  <0>        -0.4900
     10 C10        -0.7242   -0.5421   43.1189 C.ar    1  <0>         0.1000
     11 C11        -1.2374    0.2938   44.0925 C.ar    1  <0>        -0.1700
     12 C12        -2.0941    2.9252   50.3559 C.2     1  <0>         0.5100
     13 O13        -1.5664    3.9740   50.6626 O.2     1  <0>        -0.5200
     14 N14        -3.2403    2.5468   50.9557 N.am    1  <0>        -0.5800
     15 C15        -3.8713    3.3929   51.9799 C.3     1  <0>         0.0800
     16 C16        -5.3446    3.5909   51.6077 C.3     1  <0>         0.0400
     17 N17        -5.9767    2.2797   51.4094 N.3     1  <0>        -0.5300
     18 C18        -7.4269    2.4177   51.2202 C.3     1  <0>         0.1000
     19 C19        -8.1358    2.0774   52.5058 C.ar    1  <0>         0.1300
     20 C20        -8.9977    0.9980   52.5453 C.ar    1  <0>        -0.1500
     21 C21        -9.6447    0.6930   53.7333 C.ar    1  <0>        -0.0700
     22 C22        -9.3990    1.4889   54.8415 C.ar    1  <0>        -0.1700
     23 C23        -8.5237    2.5525   54.7263 C.ar    1  <0>         0.1000
     24 N24        -7.9222    2.8099   53.5815 N.ar    1  <0>        -0.4800
     25 C25        -5.3654    1.5580   50.2854 C.3     1  <0>         0.0400
     26 C26        -3.8963    1.2797   50.5991 C.3     1  <0>         0.1100
     27 H27        -1.6183    3.4051   47.8250 H       1  <0>         0.4100
     28 H28         0.3596    1.5886   47.2067 H       1  <0>         0.0800
     29 H29        -1.1531    0.6585   47.0839 H       1  <0>         0.0800
     30 H30        -2.0414    2.3978   45.5065 H       1  <0>         0.0900
     31 H31        -0.4608    3.2143   45.5677 H       1  <0>         0.0900
     32 H32         1.4890    2.2378   44.4645 H       1  <0>         0.1400
     33 H33         2.2917    0.6769   42.7372 H       1  <0>         0.1600
     34 H34        -1.3364   -1.3384   42.7220 H       1  <0>         0.1600
     35 H35        -2.2457    0.1571   44.4545 H       1  <0>         0.1400
     36 H36        -3.8017    2.9047   52.9520 H       1  <0>         0.0800
     37 H37        -3.3696    4.3600   52.0160 H       1  <0>         0.1400
     38 H38        -5.8544    4.1227   52.4110 H       1  <0>         0.0900
     39 H39        -5.4124    4.1704   50.6869 H       1  <0>         0.0400
     40 H40        -7.6604    3.4441   50.9371 H       1  <0>         0.0900
     41 H41        -7.7567    1.7398   50.4329 H       1  <0>         0.0600
     42 H42        -9.1656    0.3997   51.6620 H       1  <0>         0.1400
     43 H43       -10.3240   -0.1444   53.7937 H       1  <0>         0.1400
     44 H44        -9.8858    1.2809   55.7828 H       1  <0>         0.1400
     45 H45        -8.3273    3.1775   55.5848 H       1  <0>         0.1600
     46 H46        -5.8904    0.6156   50.1297 H       1  <0>         0.1000
     47 H47        -5.4329    2.1658   49.3830 H       1  <0>         0.0400
     48 H48        -3.4106    0.8476   49.7241 H       1  <0>         0.1000
     49 H49        -3.8258    0.5887   51.4391 H       1  <0>         0.0800
@<TRIPOS>BOND
     1     1     2    2
     2     2     3   am
     3     2    12    1
     4     3     4    1
     5     3    27    1
     6     4     5    1
     7     4    28    1
     8     4    29    1
     9     5     6    1
    10     5    30    1
    11     5    31    1
    12     6    11   ar
    13     6     7   ar
    14     7     8   ar
    15     7    32    1
    16     8     9   ar
    17     8    33    1
    18     9    10   ar
    19    10    11   ar
    20    10    34    1
    21    11    35    1
    22    12    13    2
    23    12    14   am
    24    14    26    1
    25    14    15    1
    26    15    16    1
    27    15    36    1
    28    15    37    1
    29    16    17    1
    30    16    38    1
    31    16    39    1
    32    17    18    1
    33    17    25    1
    34    18    19    1
    35    18    40    1
    36    18    41    1
    37    19    24   ar
    38    19    20   ar
    39    20    21   ar
    40    20    42    1
    41    21    22   ar
    42    21    43    1
    43    22    23   ar
    44    22    44    1
    45    23    24   ar
    46    23    45    1
    47    25    26    1
    48    25    46    1
    49    25    47    1
    50    26    48    1
    51    26    49    1
@<TRIPOS>SUBSTRUCTURE
     1 <0>         1 TEMP              0 ****  ****    0 ROOT


##########                                Name:    ZINC001312809190
##########                DOCK_Rotatable_Bonds:                   6
##########                         Heavy_Atoms:                  29
##########                    Molecular_Weight:             395.501
##########                DOCK_Rotatable_Bonds:                   6
##########                       Formal_Charge:           0.0199995
##########                     HBond_Acceptors:                   6
##########                        HBond_Donors:                   1
##########                         Heavy_Atoms:                  29
##########                          Grid_Score:          -31.718287
##########                     Grid_vdw_energy:          -31.827583
##########                      Grid_es_energy:            0.109297
##########           Internal_energy_repulsive:           24.501087

@<TRIPOS>MOLECULE
ZINC001312809190
 58 61 1 0 0
SMALL
USER_CHARGES


@<TRIPOS>ATOM
      1 C1          0.2932   -0.4800   61.3834 C.3     1  ZINC001312809190    0.0300
      2 O2          0.4992   -0.0092   60.0500 O.3     1  ZINC001312809190   -0.3200
      3 C3          0.1468    1.2770   59.7885 C.ar    1  ZINC001312809190    0.1300
      4 C4         -0.5093    2.0274   60.7530 C.ar    1  ZINC001312809190   -0.2100
      5 C5         -0.8661    3.3349   60.4849 C.ar    1  ZINC001312809190   -0.0800
      6 C6         -0.5704    3.8953   59.2562 C.ar    1  ZINC001312809190   -0.1300
      7 C7          0.0832    3.1490   58.2927 C.ar    1  ZINC001312809190   -0.0500
      8 C8          0.4038    3.7629   56.9542 C.3     1  ZINC001312809190    0.1200
      9 H9          0.8051    2.9973   56.2901 H       1  ZINC001312809190    0.0500
     10 C10         1.4401    4.8734   57.1375 C.3     1  ZINC001312809190   -0.1400
     11 N11        -0.8198    4.3267   56.3684 N.3     1  ZINC001312809190   -0.5300
     12 C12        -1.9077    3.3397   56.3705 C.3     1  ZINC001312809190    0.0300
     13 C13        -3.2077    4.0162   55.9228 C.3     1  ZINC001312809190    0.1400
     14 N14        -2.9696    4.6767   54.6304 N.am    1  ZINC001312809190   -0.6300
     15 C15        -3.7900    4.4627   53.5827 C.2     1  ZINC001312809190    0.7100
     16 O16        -3.5780    5.0171   52.5215 O.2     1  ZINC001312809190   -0.5800
     17 N17        -4.8452    3.6342   53.7113 N.am    1  ZINC001312809190   -0.7300
     18 C18        -5.7369    3.4016   52.5725 C.3     1  ZINC001312809190    0.1800
     19 H19        -5.7651    4.2729   51.9181 H       1  ZINC001312809190    0.1200
     20 C20        -5.3238    2.1606   51.8052 C.ar    1  ZINC001312809190   -0.1900
     21 C21        -4.1001    1.7146   51.3582 C.ar    1  ZINC001312809190   -0.0500
     22 C22        -4.0091    0.5146   50.6748 C.ar    1  ZINC001312809190   -0.1500
     23 C23        -5.1494   -0.2319   50.4436 C.ar    1  ZINC001312809190   -0.0800
     24 C24        -6.3770    0.2149   50.8875 C.ar    1  ZINC001312809190   -0.1400
     25 C25        -6.4777    1.4227   51.5729 C.ar    1  ZINC001312809190    0.1100
     26 O26        -7.5749    2.0521   52.0763 O.3     1  ZINC001312809190   -0.2900
     27 C27        -7.1586    3.0239   53.0517 C.3     1  ZINC001312809190    0.0800
     28 H28        -7.1254    2.5818   54.0474 H       1  ZINC001312809190    0.0900
     29 C29        -8.0841    4.2420   53.0324 C.3     1  ZINC001312809190   -0.1500
     30 C30        -1.8128    5.5773   54.5118 C.3     1  ZINC001312809190    0.1200
     31 C31        -0.5677    4.8393   55.0151 C.3     1  ZINC001312809190    0.0400
     32 C32         0.4476    1.8434   58.5581 C.ar    1  ZINC001312809190   -0.1500
     33 H33         0.6155   -1.5187   61.4558 H       1  ZINC001312809190    0.1000
     34 H34         0.8723    0.1293   62.0774 H       1  ZINC001312809190    0.0600
     35 H35        -0.7652   -0.4097   61.6341 H       1  ZINC001312809190    0.0600
     36 H36        -0.7414    1.5898   61.7128 H       1  ZINC001312809190    0.1300
     37 H37        -1.3770    3.9196   61.2356 H       1  ZINC001312809190    0.1300
     38 H38        -0.8504    4.9174   59.0484 H       1  ZINC001312809190    0.1300
     39 H39         1.0387    5.6390   57.8016 H       1  ZINC001312809190    0.0700
     40 H40         2.3479    4.4551   57.5721 H       1  ZINC001312809190    0.0600
     41 H41         1.6719    5.3174   56.1693 H       1  ZINC001312809190    0.0600
     42 H42        -1.6644    2.5288   55.6837 H       1  ZINC001312809190    0.0400
     43 H43        -2.0337    2.9393   57.3764 H       1  ZINC001312809190    0.1000
     44 H44        -3.9913    3.2667   55.8122 H       1  ZINC001312809190    0.1000
     45 H45        -3.5083    4.7577   56.6631 H       1  ZINC001312809190    0.0700
     46 H46        -5.0142    3.1918   54.5579 H       1  ZINC001312809190    0.4000
     47 H47        -3.2118    2.3011   51.5407 H       1  ZINC001312809190    0.1200
     48 H48        -3.0505    0.1628   50.3230 H       1  ZINC001312809190    0.1300
     49 H49        -5.0790   -1.1696   49.9125 H       1  ZINC001312809190    0.1300
     50 H50        -7.2630   -0.3742   50.7023 H       1  ZINC001312809190    0.1300
     51 H51        -9.0979    3.9322   53.2862 H       1  ZINC001312809190    0.0800
     52 H52        -7.7352    4.9750   53.7598 H       1  ZINC001312809190    0.0800
     53 H53        -8.0787    4.6868   52.0372 H       1  ZINC001312809190    0.0700
     54 H54        -1.6742    5.8598   53.4682 H       1  ZINC001312809190    0.0800
     55 H55        -1.9794    6.4687   55.1165 H       1  ZINC001312809190    0.0800
     56 H56         0.2780    5.5265   55.0379 H       1  ZINC001312809190    0.0900
     57 H57        -0.3432    4.0076   54.3472 H       1  ZINC001312809190    0.0400
     58 H58         0.9583    1.2612   57.8054 H       1  ZINC001312809190    0.1300
@<TRIPOS>BOND
     1     1     2    1
     2     1    33    1
     3     1    34    1
     4     1    35    1
     5     2     3    1
     6     3    32   ar
     7     3     4   ar
     8     4     5   ar
     9     4    36    1
    10     5     6   ar
    11     5    37    1
    12     6     7   ar
    13     6    38    1
    14     7     8    1
    15     7    32   ar
    16     8     9    1
    17     8    10    1
    18     8    11    1
    19    10    39    1
    20    10    40    1
    21    10    41    1
    22    11    31    1
    23    11    12    1
    24    12    13    1
    25    12    42    1
    26    12    43    1
    27    13    14    1
    28    13    44    1
    29    13    45    1
    30    14    15   am
    31    14    30    1
    32    15    16    2
    33    15    17   am
    34    17    18    1
    35    17    46    1
    36    18    19    1
    37    18    27    1
    38    18    20    1
    39    20    25   ar
    40    20    21   ar
    41    21    22   ar
    42    21    47    1
    43    22    23   ar
    44    22    48    1
    45    23    24   ar
    46    23    49    1
    47    24    25   ar
    48    24    50    1
    49    25    26    1
    50    26    27    1
    51    27    28    1
    52    27    29    1
    53    29    51    1
    54    29    52    1
    55    29    53    1
    56    30    31    1
    57    30    54    1
    58    30    55    1
    59    31    56    1
    60    31    57    1
    61    32    58    1
@<TRIPOS>SUBSTRUCTURE
     1 ZINC001312809190        1 TEMP              0 ****  ****    0 ROOT


##########                                Name:    ZINC000004598904
##########                DOCK_Rotatable_Bonds:                  13
##########                         Heavy_Atoms:                  30
##########                    Molecular_Weight:             412.442
##########                DOCK_Rotatable_Bonds:                  13
##########                       Formal_Charge:          -0.0300005
##########                     HBond_Acceptors:                   8
##########                        HBond_Donors:                   2
##########                         Heavy_Atoms:                  30
##########                          Grid_Score:          -31.706648
##########                     Grid_vdw_energy:          -28.802286
##########                      Grid_es_energy:           -2.904361
##########           Internal_energy_repulsive:           10.695494

@<TRIPOS>MOLECULE
ZINC000004598904
 54 55 1 0 0
SMALL
USER_CHARGES


@<TRIPOS>ATOM
      1 C1        -15.0485    1.0810   57.5155 C.3     1  ZINC000004598904   -0.1500
      2 C2        -14.2565   -0.2271   57.5658 C.3     1  ZINC000004598904    0.0600
      3 O3        -13.0069   -0.0643   56.8447 O.3     1  ZINC000004598904   -0.3500
      4 C4        -13.0763   -0.0354   55.4993 C.2     1  ZINC000004598904    0.5100
      5 O5        -14.0896   -0.3983   54.9353 O.2     1  ZINC000004598904   -0.5100
      6 C6        -11.9225    0.4363   54.7114 C.ar    1  ZINC000004598904   -0.1500
      7 C7        -11.9956    0.4743   53.3157 C.ar    1  ZINC000004598904   -0.0400
      8 C8        -10.9166    0.9152   52.5835 C.ar    1  ZINC000004598904   -0.1400
      9 C9         -9.7542    1.3227   53.2307 C.ar    1  ZINC000004598904    0.1800
     10 N10        -8.6635    1.7690   52.4858 N.am    1  ZINC000004598904   -0.6700
     11 C11        -8.0613    0.9404   51.6099 C.2     1  ZINC000004598904    0.5200
     12 O12        -8.4682   -0.1934   51.4695 O.2     1  ZINC000004598904   -0.5100
     13 C13        -6.8823    1.4229   50.8047 C.3     1  ZINC000004598904   -0.1300
     14 C14        -5.5986    0.7997   51.3566 C.3     1  ZINC000004598904   -0.1300
     15 C15        -4.4095    1.3688   50.6263 C.2     1  ZINC000004598904    0.5200
     16 O16        -4.4792    1.5930   49.4364 O.2     1  ZINC000004598904   -0.5100
     17 N17        -3.2688    1.6288   51.2953 N.am    1  ZINC000004598904   -0.6700
     18 C18        -2.1689    2.1553   50.6196 C.ar    1  ZINC000004598904    0.1800
     19 C19        -1.1978    1.3026   50.1038 C.ar    1  ZINC000004598904   -0.1400
     20 C20        -0.1106    1.8189   49.4361 C.ar    1  ZINC000004598904   -0.0300
     21 C21         0.0172    3.2019   49.2761 C.ar    1  ZINC000004598904   -0.1500
     22 C22         1.1804    3.7588   48.5610 C.2     1  ZINC000004598904    0.5100
     23 O23         2.1027    4.2435   49.1860 O.2     1  ZINC000004598904   -0.5100
     24 O24         1.2204    3.7302   47.2144 O.3     1  ZINC000004598904   -0.3600
     25 C25        -0.0506    3.7970   46.5155 C.3     1  ZINC000004598904    0.0600
     26 C26         0.1907    3.6999   45.0078 C.3     1  ZINC000004598904   -0.1500
     27 C27        -0.9606    4.0557   49.7953 C.ar    1  ZINC000004598904   -0.0400
     28 C28        -2.0477    3.5321   50.4577 C.ar    1  ZINC000004598904   -0.1600
     29 C29        -9.6778    1.2862   54.6196 C.ar    1  ZINC000004598904   -0.1600
     30 C30       -10.7550    0.8519   55.3585 C.ar    1  ZINC000004598904   -0.0300
     31 H31       -15.2590    1.3386   56.4775 H       1  ZINC000004598904    0.0700
     32 H32       -15.9867    0.9588   58.0569 H       1  ZINC000004598904    0.0800
     33 H33       -14.4642    1.8775   57.9763 H       1  ZINC000004598904    0.0700
     34 H34       -14.0461   -0.4847   58.6039 H       1  ZINC000004598904    0.0700
     35 H35       -14.8408   -1.0236   57.1051 H       1  ZINC000004598904    0.0700
     36 H36       -12.8974    0.1578   52.8127 H       1  ZINC000004598904    0.1400
     37 H37       -10.9722    0.9444   51.5053 H       1  ZINC000004598904    0.1400
     38 H38        -8.3380    2.6758   52.5981 H       1  ZINC000004598904    0.4200
     39 H39        -7.0096    1.1299   49.7626 H       1  ZINC000004598904    0.1100
     40 H40        -6.8167    2.5089   50.8715 H       1  ZINC000004598904    0.1100
     41 H41        -5.5135    1.0243   52.4198 H       1  ZINC000004598904    0.1100
     42 H42        -5.6290   -0.2806   51.2148 H       1  ZINC000004598904    0.1100
     43 H43        -3.2132    1.4495   52.2470 H       1  ZINC000004598904    0.4200
     44 H44        -1.2972    0.2343   50.2277 H       1  ZINC000004598904    0.1400
     45 H45         0.6431    1.1565   49.0366 H       1  ZINC000004598904    0.1400
     46 H46        -0.6852    2.9707   46.8359 H       1  ZINC000004598904    0.0700
     47 H47        -0.5420    4.7425   46.7447 H       1  ZINC000004598904    0.0700
     48 H48        -0.7634    3.7500   44.4832 H       1  ZINC000004598904    0.0800
     49 H49         0.8253    4.5262   44.6875 H       1  ZINC000004598904    0.0700
     50 H50         0.6821    2.7543   44.7786 H       1  ZINC000004598904    0.0700
     51 H51        -0.8650    5.1245   49.6738 H       1  ZINC000004598904    0.1400
     52 H52        -2.8038    4.1909   50.8587 H       1  ZINC000004598904    0.1400
     53 H53        -8.7741    1.6032   55.1186 H       1  ZINC000004598904    0.1400
     54 H54       -10.6951    0.8239   56.4364 H       1  ZINC000004598904    0.1400
@<TRIPOS>BOND
     1     1     2    1
     2     1    31    1
     3     1    32    1
     4     1    33    1
     5     2     3    1
     6     2    34    1
     7     2    35    1
     8     3     4    1
     9     4     5    2
    10     4     6    1
    11     6    30   ar
    12     6     7   ar
    13     7     8   ar
    14     7    36    1
    15     8     9   ar
    16     8    37    1
    17     9    10    1
    18     9    29   ar
    19    10    11   am
    20    10    38    1
    21    11    12    2
    22    11    13    1
    23    13    14    1
    24    13    39    1
    25    13    40    1
    26    14    15    1
    27    14    41    1
    28    14    42    1
    29    15    16    2
    30    15    17   am
    31    17    18    1
    32    17    43    1
    33    18    28   ar
    34    18    19   ar
    35    19    20   ar
    36    19    44    1
    37    20    21   ar
    38    20    45    1
    39    21    22    1
    40    21    27   ar
    41    22    23    2
    42    22    24    1
    43    24    25    1
    44    25    26    1
    45    25    46    1
    46    25    47    1
    47    26    48    1
    48    26    49    1
    49    26    50    1
    50    27    28   ar
    51    27    51    1
    52    28    52    1
    53    29    30   ar
    54    29    53    1
    55    30    54    1
@<TRIPOS>SUBSTRUCTURE
     1 ZINC000004598904        1 TEMP              0 ****  ****    0 ROOT


##########                                Name:    ZINC000518234532
##########                DOCK_Rotatable_Bonds:                   5
##########                         Heavy_Atoms:                  25
##########                    Molecular_Weight:             408.267
##########                DOCK_Rotatable_Bonds:                   5
##########                       Formal_Charge:         -0.00999981
##########                     HBond_Acceptors:                   5
##########                        HBond_Donors:                   1
##########                         Heavy_Atoms:                  25
##########                          Grid_Score:          -31.688633
##########                     Grid_vdw_energy:          -31.449253
##########                      Grid_es_energy:           -0.239381
##########           Internal_energy_repulsive:           20.082218

@<TRIPOS>MOLECULE
ZINC000518234532
 44 46 1 0 0
SMALL
USER_CHARGES


@<TRIPOS>ATOM
      1 C1          0.7187    1.9591   51.4294 C.3     1  ZINC000518234532   -0.1600
      2 C2         -0.1116    2.5286   50.2773 C.3     1  ZINC000518234532    0.1800
      3 H3          0.1101    3.5893   50.1594 H       1  ZINC000518234532    0.1100
      4 N4          0.2205    1.8197   49.0390 N.am    1  ZINC000518234532   -0.7300
      5 C5         -0.1732    2.3188   47.8505 C.2     1  ZINC000518234532    0.5200
      6 O6         -0.8010    3.3555   47.8062 O.2     1  ZINC000518234532   -0.5200
      7 C7          0.1668    1.5886   46.5768 C.3     1  ZINC000518234532   -0.0700
      8 H8         -0.6703    0.9531   46.2878 H       1  ZINC000518234532    0.1100
      9 C9          1.4096    0.7249   46.8003 C.3     1  ZINC000518234532   -0.1400
     10 C10         0.4398    2.5881   45.4824 C.ar    1  ZINC000518234532   -0.1000
     11 C11         1.7125    3.0994   45.3152 C.ar    1  ZINC000518234532   -0.0600
     12 C12         1.9633    4.0164   44.3112 C.ar    1  ZINC000518234532   -0.1300
     13 C13         0.9413    4.4231   43.4740 C.ar    1  ZINC000518234532   -0.0900
     14 C14        -0.3328    3.9134   43.6398 C.ar    1  ZINC000518234532   -0.1600
     15 C15        -0.5835    2.9902   44.6405 C.ar    1  ZINC000518234532    0.1000
     16 F16        -1.8284    2.4912   44.8034 F       1  ZINC000518234532   -0.1400
     17 C17        -1.5774    2.3522   50.5795 C.ar    1  ZINC000518234532   -0.0600
     18 C18        -2.2318    1.2041   50.1755 C.ar    1  ZINC000518234532   -0.1100
     19 C19        -3.5806    1.0386   50.4529 C.ar    1  ZINC000518234532    0.0800
     20 C20        -4.2719    2.0292   51.1400 C.ar    1  ZINC000518234532    0.0600
     21 C21        -3.6102    3.1799   51.5420 C.ar    1  ZINC000518234532   -0.0800
     22 C22        -2.2645    3.3373   51.2658 C.ar    1  ZINC000518234532   -0.0800
     23 Br23       -1.3650    4.9070   51.8162 Br      1  ZINC000518234532   -0.0300
     24 O24        -5.5939    1.8832   51.4292 O.3     1  ZINC000518234532   -0.3000
     25 C25        -6.3090    0.8890   50.6876 C.3     1  ZINC000518234532    0.0200
     26 C26        -5.4667   -0.3937   50.6670 C.3     1  ZINC000518234532    0.0200
     27 O27        -4.2122   -0.0962   50.0447 O.3     1  ZINC000518234532   -0.3000
     28 H28         1.7790    2.0866   51.2108 H       1  ZINC000518234532    0.0700
     29 H29         0.4716    2.4865   52.3507 H       1  ZINC000518234532    0.0700
     30 H30         0.4971    0.8984   51.5473 H       1  ZINC000518234532    0.0600
     31 H31         0.7237    0.9912   49.0744 H       1  ZINC000518234532    0.4000
     32 H32         1.2122    0.0020   47.5918 H       1  ZINC000518234532    0.0700
     33 H33         1.6556    0.1968   45.8790 H       1  ZINC000518234532    0.0700
     34 H34         2.2467    1.3605   47.0893 H       1  ZINC000518234532    0.0700
     35 H35         2.5117    2.7829   45.9691 H       1  ZINC000518234532    0.1300
     36 H36         2.9583    4.4155   44.1812 H       1  ZINC000518234532    0.1300
     37 H37         1.1382    5.1397   42.6904 H       1  ZINC000518234532    0.1300
     38 H38        -1.1312    4.2317   42.9860 H       1  ZINC000518234532    0.1400
     39 H39        -1.6924    0.4348   49.6428 H       1  ZINC000518234532    0.1400
     40 H40        -4.1456    3.9522   52.0742 H       1  ZINC000518234532    0.1500
     41 H41        -7.2678    0.6916   51.1671 H       1  ZINC000518234532    0.1300
     42 H42        -6.4725    1.2379   49.6679 H       1  ZINC000518234532    0.0800
     43 H43        -5.2982   -0.7392   51.6869 H       1  ZINC000518234532    0.0800
     44 H44        -5.9856   -1.1650   50.0980 H       1  ZINC000518234532    0.1300
@<TRIPOS>BOND
     1     1     2    1
     2     1    28    1
     3     1    29    1
     4     1    30    1
     5     2     3    1
     6     2     4    1
     7     2    17    1
     8     4     5   am
     9     4    31    1
    10     5     6    2
    11     5     7    1
    12     7     8    1
    13     7     9    1
    14     7    10    1
    15     9    32    1
    16     9    33    1
    17     9    34    1
    18    10    15   ar
    19    10    11   ar
    20    11    12   ar
    21    11    35    1
    22    12    13   ar
    23    12    36    1
    24    13    14   ar
    25    13    37    1
    26    14    15   ar
    27    14    38    1
    28    15    16    1
    29    17    22   ar
    30    17    18   ar
    31    18    19   ar
    32    18    39    1
    33    19    27    1
    34    19    20   ar
    35    20    21   ar
    36    20    24    1
    37    21    22   ar
    38    21    40    1
    39    22    23    1
    40    24    25    1
    41    25    26    1
    42    25    41    1
    43    25    42    1
    44    26    27    1
    45    26    43    1
    46    26    44    1
@<TRIPOS>SUBSTRUCTURE
     1 ZINC000518234532        1 TEMP              0 ****  ****    0 ROOT


##########                                Name:    ZINC001009116151
##########                DOCK_Rotatable_Bonds:                   6
##########                         Heavy_Atoms:                  25
##########                    Molecular_Weight:             342.481
##########                DOCK_Rotatable_Bonds:                   6
##########                       Formal_Charge:           0.0600006
##########                     HBond_Acceptors:                   4
##########                        HBond_Donors:                   1
##########                         Heavy_Atoms:                  25
##########                          Grid_Score:          -31.681496
##########                     Grid_vdw_energy:          -31.380493
##########                      Grid_es_energy:           -0.301002
##########           Internal_energy_repulsive:            8.839802

@<TRIPOS>MOLECULE
ZINC001009116151
 55 59 1 0 0
SMALL
USER_CHARGES


@<TRIPOS>ATOM
      1 O1         -0.0685    1.0814   49.9026 O.2     1  ZINC001009116151   -0.5400
      2 C2         -0.7238    1.5256   48.9838 C.2     1  ZINC001009116151    0.5200
      3 N3         -2.0658    1.5964   49.0857 N.am    1  ZINC001009116151   -0.7300
      4 C4         -2.7335    1.1310   50.3039 C.3     1  ZINC001009116151    0.1500
      5 C5         -4.2484    1.2692   50.1398 C.3     1  ZINC001009116151   -0.1200
      6 H6         -4.6356    1.0430   49.1463 H       1  ZINC001009116151    0.1100
      7 C7         -4.9455    2.3762   50.9331 C.3     1  ZINC001009116151   -0.1700
      8 H8         -4.3494    3.0674   51.5288 H       1  ZINC001009116151    0.1200
      9 C9         -6.3284    2.8601   50.4460 C.3     1  ZINC001009116151    0.1300
     10 N10        -7.2950    1.9442   51.0953 N.am    1  ZINC001009116151   -0.6200
     11 C11        -8.4945    2.2505   51.6279 C.2     1  ZINC001009116151    0.5500
     12 O12        -8.8933    3.3956   51.6058 O.2     1  ZINC001009116151   -0.5300
     13 C13        -9.3402    1.1699   52.2509 C.3     1  ZINC001009116151   -0.1200
     14 C14        -9.1847    1.1609   53.7894 C.3     1  ZINC001009116151   -0.0900
     15 C15       -10.3128    2.0301   54.2946 C.2     1  ZINC001009116151   -0.1800
     16 C16       -11.2188    2.2074   53.3719 C.2     1  ZINC001009116151   -0.1500
     17 C17       -10.8462    1.4860   52.0976 C.3     1  ZINC001009116151   -0.0900
     18 C18        -6.6438    0.6153   51.0262 C.3     1  ZINC001009116151    0.1200
     19 C19        -5.1241    0.8999   51.3388 C.3     1  ZINC001009116151   -0.1600
     20 H20        -4.7068    0.4710   52.2498 H       1  ZINC001009116151    0.1300
     21 C21        -0.0370    2.0043   47.7307 C.3     1  ZINC001009116151   -0.0700
     22 C22         0.3452    3.4773   47.8894 C.3     1  ZINC001009116151   -0.1100
     23 C23         1.0423    3.9632   46.6172 C.3     1  ZINC001009116151   -0.1100
     24 C24         1.1250    2.8142   45.6103 C.3     1  ZINC001009116151   -0.0900
     25 C25         1.9220    1.6589   46.2191 C.3     1  ZINC001009116151   -0.1100
     26 C26         1.2248    1.1729   47.4913 C.3     1  ZINC001009116151   -0.0900
     27 C27        -0.2867    2.3346   45.2668 C.3     1  ZINC001009116151   -0.1100
     28 C28        -0.9839    1.8487   46.5391 C.3     1  ZINC001009116151   -0.1000
     29 H29        -2.5897    1.9553   48.3525 H       1  ZINC001009116151    0.4000
     30 H30        -2.4809    0.0854   50.4799 H       1  ZINC001009116151    0.0800
     31 H31        -2.4035    1.7321   51.1513 H       1  ZINC001009116151    0.0700
     32 H32        -6.5055    3.8874   50.7645 H       1  ZINC001009116151    0.0900
     33 H33        -6.3987    2.7801   49.3612 H       1  ZINC001009116151    0.0800
     34 H34        -9.1000    0.1948   51.8270 H       1  ZINC001009116151    0.1100
     35 H35        -9.2850    0.1465   54.1753 H       1  ZINC001009116151    0.0900
     36 H36        -8.2219    1.5838   54.0761 H       1  ZINC001009116151    0.0800
     37 H37       -10.3629    2.4493   55.2886 H       1  ZINC001009116151    0.1300
     38 H38       -12.1172    2.7925   53.5023 H       1  ZINC001009116151    0.1300
     39 H39       -11.0130    2.1299   51.2341 H       1  ZINC001009116151    0.0900
     40 H40       -11.4199    0.5642   52.0014 H       1  ZINC001009116151    0.0900
     41 H41        -7.0588   -0.0511   51.7824 H       1  ZINC001009116151    0.0900
     42 H42        -6.7633    0.1847   50.0320 H       1  ZINC001009116151    0.0800
     43 H43        -0.5539    4.0695   48.0599 H       1  ZINC001009116151    0.0700
     44 H44         1.0196    3.5881   48.7384 H       1  ZINC001009116151    0.0700
     45 H45         0.4744    4.7863   46.1834 H       1  ZINC001009116151    0.0700
     46 H46         2.0481    4.3049   46.8619 H       1  ZINC001009116151    0.0700
     47 H47         1.6217    3.1605   44.7039 H       1  ZINC001009116151    0.0700
     48 H48         1.9809    0.8403   45.5017 H       1  ZINC001009116151    0.0700
     49 H49         2.9278    2.0005   46.4639 H       1  ZINC001009116151    0.0700
     50 H50         1.8994    1.2838   48.3403 H       1  ZINC001009116151    0.0700
     51 H51         0.9526    0.1235   47.3783 H       1  ZINC001009116151    0.0700
     52 H52        -0.8546    3.1577   44.8330 H       1  ZINC001009116151    0.0700
     53 H53        -0.2278    1.5160   44.5494 H       1  ZINC001009116151    0.0700
     54 H54        -1.2562    0.7993   46.4259 H       1  ZINC001009116151    0.0700
     55 H55        -1.8830    2.4409   46.7095 H       1  ZINC001009116151    0.0700
@<TRIPOS>BOND
     1     1     2    2
     2     2     3   am
     3     2    21    1
     4     3     4    1
     5     3    29    1
     6     4     5    1
     7     4    30    1
     8     4    31    1
     9     5     6    1
    10     5    19    1
    11     5     7    1
    12     7     8    1
    13     7    19    1
    14     7     9    1
    15     9    10    1
    16     9    32    1
    17     9    33    1
    18    10    11   am
    19    10    18    1
    20    11    12    2
    21    11    13    1
    22    13    17    1
    23    13    14    1
    24    13    34    1
    25    14    15    1
    26    14    35    1
    27    14    36    1
    28    15    16    2
    29    15    37    1
    30    16    17    1
    31    16    38    1
    32    17    39    1
    33    17    40    1
    34    18    19    1
    35    18    41    1
    36    18    42    1
    37    19    20    1
    38    21    26    1
    39    21    28    1
    40    21    22    1
    41    22    23    1
    42    22    43    1
    43    22    44    1
    44    23    24    1
    45    23    45    1
    46    23    46    1
    47    24    25    1
    48    24    27    1
    49    24    47    1
    50    25    26    1
    51    25    48    1
    52    25    49    1
    53    26    50    1
    54    26    51    1
    55    27    28    1
    56    27    52    1
    57    27    53    1
    58    28    54    1
    59    28    55    1
@<TRIPOS>SUBSTRUCTURE
     1 ZINC001009116151        1 TEMP              0 ****  ****    0 ROOT


##########                                Name:    ZINC000496437542
##########                DOCK_Rotatable_Bonds:                   7
##########                         Heavy_Atoms:                  24
##########                    Molecular_Weight:             338.447
##########                DOCK_Rotatable_Bonds:                   7
##########                       Formal_Charge:           0.0400002
##########                     HBond_Acceptors:                   6
##########                        HBond_Donors:                   1
##########                         Heavy_Atoms:                  24
##########                          Grid_Score:          -31.656975
##########                     Grid_vdw_energy:          -31.487221
##########                      Grid_es_energy:           -0.169755
##########           Internal_energy_repulsive:           18.108437

@<TRIPOS>MOLECULE
ZINC000496437542
 54 55 1 0 0
SMALL
USER_CHARGES


@<TRIPOS>ATOM
      1 C1         -8.5238    4.2618   52.7802 C.3     1  ZINC000496437542   -0.1800
      2 C2         -8.7277    2.8205   52.3089 C.3     1  ZINC000496437542    0.1400
      3 C3         -8.2306    1.8560   53.3876 C.3     1  ZINC000496437542   -0.1800
      4 C4        -10.2155    2.5741   52.0508 C.3     1  ZINC000496437542   -0.1400
      5 O5         -7.9810    2.6021   51.0830 O.3     1  ZINC000496437542   -0.3600
      6 C6         -6.6988    3.0124   51.0668 C.2     1  ZINC000496437542    0.6600
      7 O7         -6.4404    4.1931   50.9409 O.2     1  ZINC000496437542   -0.5600
      8 N8         -5.7020    2.1138   51.1902 N.am    1  ZINC000496437542   -0.6000
      9 C9         -5.9904    0.6790   51.3437 C.3     1  ZINC000496437542    0.0800
     10 C10        -5.1534   -0.0948   50.3188 C.3     1  ZINC000496437542    0.0500
     11 O11        -3.7830    0.2939   50.4404 O.3     1  ZINC000496437542   -0.3700
     12 C12        -3.5388    1.6739   50.1580 C.3     1  ZINC000496437542    0.0700
     13 H13        -3.8878    1.9069   49.1520 H       1  ZINC000496437542    0.0700
     14 C14        -2.0388    1.9582   50.2571 C.3     1  ZINC000496437542    0.1300
     15 N15        -1.5135    2.2783   48.9275 N.am    1  ZINC000496437542   -0.7200
     16 C16        -0.6448    1.4411   48.3266 C.2     1  ZINC000496437542    0.5600
     17 O17        -0.2981    0.4193   48.8876 O.2     1  ZINC000496437542   -0.5400
     18 C18        -0.1159    1.7633   46.9923 C.2     1  ZINC000496437542   -0.1900
     19 C19         1.1820    1.8822   46.8134 C.2     1  ZINC000496437542   -0.0600
     20 C20         1.7371    2.2141   45.4444 C.3     1  ZINC000496437542   -0.1000
     21 C21         1.5735    0.9889   44.5421 C.3     1  ZINC000496437542   -0.1100
     22 C22         0.1978    0.9710   43.9012 C.3     1  ZINC000496437542   -0.1200
     23 C23        -0.9359    0.7583   44.8877 C.3     1  ZINC000496437542   -0.1200
     24 C24        -1.0675    1.9507   45.8296 C.3     1  ZINC000496437542   -0.0800
     25 C25        -4.2930    2.5377   51.1690 C.3     1  ZINC000496437542    0.1000
     26 H26        -7.4639    4.4374   52.9642 H       1  ZINC000496437542    0.0900
     27 H27        -8.8780    4.9489   52.0118 H       1  ZINC000496437542    0.0600
     28 H28        -9.0844    4.4258   53.7006 H       1  ZINC000496437542    0.0700
     29 H29        -8.7911    2.0201   54.3079 H       1  ZINC000496437542    0.0700
     30 H30        -8.3759    0.8293   53.0519 H       1  ZINC000496437542    0.0600
     31 H31        -7.1707    2.0317   53.5715 H       1  ZINC000496437542    0.0900
     32 H32       -10.5696    3.2611   51.2822 H       1  ZINC000496437542    0.0700
     33 H33       -10.3607    1.5473   51.7150 H       1  ZINC000496437542    0.0700
     34 H34       -10.7760    2.7381   52.9711 H       1  ZINC000496437542    0.0800
     35 H35        -5.7265    0.3573   52.3512 H       1  ZINC000496437542    0.0800
     36 H36        -7.0501    0.4963   51.1653 H       1  ZINC000496437542    0.1000
     37 H37        -5.2463   -1.1647   50.5060 H       1  ZINC000496437542    0.1100
     38 H38        -5.5082    0.1317   49.3134 H       1  ZINC000496437542    0.0600
     39 H39        -1.8723    2.8023   50.9264 H       1  ZINC000496437542    0.0900
     40 H40        -1.5272    1.0785   50.6478 H       1  ZINC000496437542    0.0800
     41 H41        -1.7909    3.0926   48.4796 H       1  ZINC000496437542    0.4000
     42 H42         1.8546    1.7428   47.6469 H       1  ZINC000496437542    0.1300
     43 H43         1.1889    3.0560   45.0215 H       1  ZINC000496437542    0.0800
     44 H44         2.7937    2.4676   45.5295 H       1  ZINC000496437542    0.0800
     45 H45         2.3329    1.0153   43.7606 H       1  ZINC000496437542    0.0700
     46 H46         1.7037    0.0851   45.1373 H       1  ZINC000496437542    0.0700
     47 H47         0.0401    1.9205   43.3895 H       1  ZINC000496437542    0.0600
     48 H48         0.1693    0.1715   43.1609 H       1  ZINC000496437542    0.0600
     49 H49        -1.8690    0.6291   44.3394 H       1  ZINC000496437542    0.0700
     50 H50        -0.7378   -0.1392   45.4736 H       1  ZINC000496437542    0.0600
     51 H51        -2.0904    2.0126   46.2010 H       1  ZINC000496437542    0.0700
     52 H52        -0.8122    2.8672   45.2977 H       1  ZINC000496437542    0.0800
     53 H53        -4.2278    3.5859   50.8773 H       1  ZINC000496437542    0.1100
     54 H54        -3.8604    2.4045   52.1606 H       1  ZINC000496437542    0.0900
@<TRIPOS>BOND
     1     1     2    1
     2     1    26    1
     3     1    27    1
     4     1    28    1
     5     2     3    1
     6     2     4    1
     7     2     5    1
     8     3    29    1
     9     3    30    1
    10     3    31    1
    11     4    32    1
    12     4    33    1
    13     4    34    1
    14     5     6    1
    15     6     7    2
    16     6     8   am
    17     8    25    1
    18     8     9    1
    19     9    10    1
    20     9    35    1
    21     9    36    1
    22    10    11    1
    23    10    37    1
    24    10    38    1
    25    11    12    1
    26    12    13    1
    27    12    14    1
    28    12    25    1
    29    14    15    1
    30    14    39    1
    31    14    40    1
    32    15    16   am
    33    15    41    1
    34    16    17    2
    35    16    18    1
    36    18    24    1
    37    18    19    2
    38    19    20    1
    39    19    42    1
    40    20    21    1
    41    20    43    1
    42    20    44    1
    43    21    22    1
    44    21    45    1
    45    21    46    1
    46    22    23    1
    47    22    47    1
    48    22    48    1
    49    23    24    1
    50    23    49    1
    51    23    50    1
    52    24    51    1
    53    24    52    1
    54    25    53    1
    55    25    54    1
@<TRIPOS>SUBSTRUCTURE
     1 ZINC000496437542        1 TEMP              0 ****  ****    0 ROOT


##########                                Name:    ZINC001500042809
##########                DOCK_Rotatable_Bonds:                   9
##########                         Heavy_Atoms:                  24
##########                    Molecular_Weight:              346.45
##########                DOCK_Rotatable_Bonds:                   9
##########                       Formal_Charge:           0.0200001
##########                     HBond_Acceptors:                   6
##########                        HBond_Donors:                   2
##########                         Heavy_Atoms:                  24
##########                          Grid_Score:          -31.653196
##########                     Grid_vdw_energy:          -29.346239
##########                      Grid_es_energy:           -2.306958
##########           Internal_energy_repulsive:           19.488731

@<TRIPOS>MOLECULE
ZINC001500042809
 46 47 1 0 0
SMALL
USER_CHARGES


@<TRIPOS>ATOM
      1 C1         -9.5396    1.3460   53.9493 C.3     1  ZINC001500042809    0.0200
      2 O2         -8.8714    2.3658   53.2039 O.3     1  ZINC001500042809   -0.3100
      3 C3         -7.6927    2.0306   52.6207 C.ar    1  ZINC001500042809    0.1600
      4 C4         -6.5108    2.6150   53.0606 C.ar    1  ZINC001500042809   -0.1600
      5 C5         -5.3128    2.2778   52.4710 C.ar    1  ZINC001500042809   -0.0200
      6 C6         -5.2865    1.3466   51.4296 C.ar    1  ZINC001500042809   -0.1800
      7 C7         -4.0046    0.9824   50.7950 C.2     1  ZINC001500042809    0.5600
      8 O8         -3.9769    0.1363   49.9222 O.2     1  ZINC001500042809   -0.5300
      9 N9         -2.8647    1.5878   51.1830 N.am    1  ZINC001500042809   -0.7300
     10 C10        -1.5925    1.2276   50.5519 C.3     1  ZINC001500042809    0.1300
     11 C11        -1.3441    2.1393   49.3486 C.3     1  ZINC001500042809   -0.1200
     12 H12        -2.2881    2.3354   48.8403 H       1  ZINC001500042809    0.0900
     13 C13        -0.7380    3.4605   49.8261 C.3     1  ZINC001500042809   -0.1500
     14 C14        -0.3765    1.4545   48.3812 C.3     1  ZINC001500042809    0.1300
     15 N15        -0.2713    2.2467   47.1533 N.am    1  ZINC001500042809   -0.7300
     16 C16         0.3734    1.7455   46.0811 C.2     1  ZINC001500042809    0.5900
     17 O17         0.8669    0.6343   46.1325 O.2     1  ZINC001500042809   -0.5200
     18 C18         0.4802    2.5389   44.8532 C.2     1  ZINC001500042809   -0.2800
     19 C19         1.1174    2.1476   43.7095 C.2     1  ZINC001500042809   -0.0100
     20 C20         1.8087    0.8168   43.5601 C.3     1  ZINC001500042809   -0.1100
     21 C21         1.0645    3.0883   42.7085 C.2     1  ZINC001500042809   -0.1500
     22 C22         0.4074    4.2118   43.0196 C.2     1  ZINC001500042809   -0.2200
     23 S23        -0.1975    4.1435   44.6134 S.3     1  ZINC001500042809    0.1900
     24 C24        -6.4775    0.7653   50.9868 C.ar    1  ZINC001500042809   -0.0400
     25 C25        -7.6708    1.1042   51.5848 C.ar    1  ZINC001500042809   -0.2200
     26 H26        -9.7660    0.5057   53.2930 H       1  ZINC001500042809    0.0600
     27 H27        -8.8960    1.0092   54.7620 H       1  ZINC001500042809    0.0600
     28 H28       -10.4663    1.7453   54.3613 H       1  ZINC001500042809    0.1000
     29 H29        -6.5319    3.3347   53.8656 H       1  ZINC001500042809    0.1400
     30 H30        -4.3950    2.7328   52.8130 H       1  ZINC001500042809    0.1400
     31 H31        -2.8866    2.2620   51.8800 H       1  ZINC001500042809    0.4000
     32 H32        -1.6326    0.1902   50.2196 H       1  ZINC001500042809    0.0800
     33 H33        -0.7830    1.3475   51.2718 H       1  ZINC001500042809    0.0800
     34 H34        -1.4273    3.9482   50.5154 H       1  ZINC001500042809    0.0600
     35 H35         0.2061    3.2643   50.3345 H       1  ZINC001500042809    0.0600
     36 H36        -0.5610    4.1099   48.9689 H       1  ZINC001500042809    0.0600
     37 H37         0.6058    1.3733   48.8465 H       1  ZINC001500042809    0.0800
     38 H38        -0.7478    0.4584   48.1402 H       1  ZINC001500042809    0.0800
     39 H39        -0.6657    3.1320   47.1120 H       1  ZINC001500042809    0.4000
     40 H40         1.1010    0.0805   43.1792 H       1  ZINC001500042809    0.0800
     41 H41         2.6406    0.9158   42.8628 H       1  ZINC001500042809    0.0700
     42 H42         2.1844    0.4917   44.5303 H       1  ZINC001500042809    0.0900
     43 H43         1.5203    2.9322   41.7419 H       1  ZINC001500042809    0.1500
     44 H44         0.2743    5.0484   42.3496 H       1  ZINC001500042809    0.1700
     45 H45        -6.4617    0.0484   50.1792 H       1  ZINC001500042809    0.1300
     46 H46        -8.5913    0.6529   51.2453 H       1  ZINC001500042809    0.1400
@<TRIPOS>BOND
     1     1     2    1
     2     1    26    1
     3     1    27    1
     4     1    28    1
     5     2     3    1
     6     3    25   ar
     7     3     4   ar
     8     4     5   ar
     9     4    29    1
    10     5     6   ar
    11     5    30    1
    12     6     7    1
    13     6    24   ar
    14     7     8    2
    15     7     9   am
    16     9    10    1
    17     9    31    1
    18    10    11    1
    19    10    32    1
    20    10    33    1
    21    11    12    1
    22    11    13    1
    23    11    14    1
    24    13    34    1
    25    13    35    1
    26    13    36    1
    27    14    15    1
    28    14    37    1
    29    14    38    1
    30    15    16   am
    31    15    39    1
    32    16    17    2
    33    16    18    1
    34    18    23    1
    35    18    19    2
    36    19    20    1
    37    19    21    1
    38    20    40    1
    39    20    41    1
    40    20    42    1
    41    21    22    2
    42    21    43    1
    43    22    23    1
    44    22    44    1
    45    24    25   ar
    46    24    45    1
    47    25    46    1
@<TRIPOS>SUBSTRUCTURE
     1 ZINC001500042809        1 TEMP              0 ****  ****    0 ROOT


##########                                Name:    ZINC000469435497
##########                DOCK_Rotatable_Bonds:                   6
##########                         Heavy_Atoms:                  27
##########                    Molecular_Weight:             364.444
##########                DOCK_Rotatable_Bonds:                   6
##########                       Formal_Charge:           0.0300001
##########                     HBond_Acceptors:                   5
##########                        HBond_Donors:                   2
##########                         Heavy_Atoms:                  27
##########                          Grid_Score:          -31.632240
##########                     Grid_vdw_energy:          -30.983316
##########                      Grid_es_energy:           -0.648924
##########           Internal_energy_repulsive:            5.297609

@<TRIPOS>MOLECULE
ZINC000469435497
 51 54 1 0 0
SMALL
USER_CHARGES


@<TRIPOS>ATOM
      1 C1         -1.6627    2.2479   47.9377 C.3     1  ZINC000469435497   -0.1600
      2 C2         -1.2532    1.6868   49.3009 C.3     1  ZINC000469435497    0.1000
      3 C3          0.2505    1.4071   49.3401 C.3     1  ZINC000469435497   -0.1400
      4 C4         -1.6649    2.6525   50.4371 C.3     1  ZINC000469435497   -0.1000
      5 C5         -3.0263    2.1122   50.8301 C.ar    1  ZINC000469435497   -0.1500
      6 C6         -4.0533    2.6497   51.5726 C.ar    1  ZINC000469435497   -0.0700
      7 C7         -5.2188    1.9202   51.7738 C.ar    1  ZINC000469435497    0.1100
      8 N8         -6.2678    2.4620   52.5283 N.am    1  ZINC000469435497   -0.6600
      9 C9         -7.4236    2.8053   51.9262 C.2     1  ZINC000469435497    0.5100
     10 O10        -7.5557    2.6455   50.7311 O.2     1  ZINC000469435497   -0.5200
     11 C11        -8.5519    3.3881   52.7377 C.3     1  ZINC000469435497    0.1000
     12 N12        -8.5131    2.8369   54.0944 N.am    1  ZINC000469435497   -0.7200
     13 C13        -9.2250    1.7324   54.3937 C.2     1  ZINC000469435497    0.5700
     14 O14        -9.9004    1.1943   53.5381 O.2     1  ZINC000469435497   -0.5300
     15 C15        -9.1845    1.1750   55.7625 C.ar    1  ZINC000469435497   -0.1400
     16 C16        -8.5916    1.8992   56.7976 C.ar    1  ZINC000469435497   -0.0800
     17 C17        -8.5583    1.3717   58.0707 C.ar    1  ZINC000469435497   -0.1100
     18 C18        -9.1101    0.1265   58.3290 C.ar    1  ZINC000469435497   -0.0700
     19 C19        -9.1962   -0.6556   59.6227 C.3     1  ZINC000469435497   -0.0900
     20 C20       -10.2797   -1.7266   59.3762 C.3     1  ZINC000469435497   -0.1200
     21 C21       -10.2208   -1.9120   57.8452 C.3     1  ZINC000469435497   -0.0800
     22 C22        -9.6995   -0.5967   57.3065 C.ar    1  ZINC000469435497   -0.1100
     23 C23        -9.7436   -0.0749   56.0277 C.ar    1  ZINC000469435497   -0.0400
     24 C24        -5.3380    0.6517   51.2226 C.ar    1  ZINC000469435497   -0.1000
     25 C25        -4.3053    0.1152   50.4827 C.ar    1  ZINC000469435497   -0.1200
     26 C26        -3.1340    0.8407   50.2807 C.ar    1  ZINC000469435497    0.1000
     27 O27        -2.0006    0.4974   49.6074 O.3     1  ZINC000469435497   -0.3000
     28 H28        -2.7301    2.4690   47.9415 H       1  ZINC000469435497    0.0600
     29 H29        -1.1031    3.1617   47.7380 H       1  ZINC000469435497    0.0800
     30 H30        -1.4466    1.5128   47.1624 H       1  ZINC000469435497    0.0700
     31 H31         0.7972    2.3354   49.1738 H       1  ZINC000469435497    0.0800
     32 H32         0.5186    0.9971   50.3138 H       1  ZINC000469435497    0.0700
     33 H33         0.5071    0.6898   48.5606 H       1  ZINC000469435497    0.0700
     34 H34        -0.9662    2.5924   51.2716 H       1  ZINC000469435497    0.0900
     35 H35        -1.7431    3.6756   50.0694 H       1  ZINC000469435497    0.0900
     36 H36        -3.9531    3.6370   51.9987 H       1  ZINC000469435497    0.1400
     37 H37        -6.1622    2.5898   53.4841 H       1  ZINC000469435497    0.4200
     38 H38        -8.4451    4.4718   52.7826 H       1  ZINC000469435497    0.1100
     39 H39        -9.5037    3.1359   52.2701 H       1  ZINC000469435497    0.1100
     40 H40        -7.9751    3.2669   54.7775 H       1  ZINC000469435497    0.4100
     41 H41        -8.1600    2.8697   56.6019 H       1  ZINC000469435497    0.1300
     42 H42        -8.0992    1.9319   58.8719 H       1  ZINC000469435497    0.1300
     43 H43        -8.2395   -1.1292   59.8428 H       1  ZINC000469435497    0.0900
     44 H44        -9.4919   -0.0001   60.4420 H       1  ZINC000469435497    0.0800
     45 H45       -10.0299   -2.6555   59.8889 H       1  ZINC000469435497    0.0800
     46 H46       -11.2601   -1.3640   59.6851 H       1  ZINC000469435497    0.0700
     47 H47        -9.5391   -2.7227   57.5884 H       1  ZINC000469435497    0.0800
     48 H48       -11.2163   -2.1145   57.4502 H       1  ZINC000469435497    0.0800
     49 H49       -10.2087   -0.6374   55.2315 H       1  ZINC000469435497    0.1400
     50 H50        -6.2432    0.0824   51.3742 H       1  ZINC000469435497    0.1400
     51 H51        -4.4055   -0.8725   50.0574 H       1  ZINC000469435497    0.1300
@<TRIPOS>BOND
     1     1     2    1
     2     1    28    1
     3     1    29    1
     4     1    30    1
     5     2    27    1
     6     2     3    1
     7     2     4    1
     8     3    31    1
     9     3    32    1
    10     3    33    1
    11     4     5    1
    12     4    34    1
    13     4    35    1
    14     5    26   ar
    15     5     6   ar
    16     6     7   ar
    17     6    36    1
    18     7     8    1
    19     7    24   ar
    20     8     9   am
    21     8    37    1
    22     9    10    2
    23     9    11    1
    24    11    12    1
    25    11    38    1
    26    11    39    1
    27    12    13   am
    28    12    40    1
    29    13    14    2
    30    13    15    1
    31    15    23   ar
    32    15    16   ar
    33    16    17   ar
    34    16    41    1
    35    17    18   ar
    36    17    42    1
    37    18    22   ar
    38    18    19    1
    39    19    20    1
    40    19    43    1
    41    19    44    1
    42    20    21    1
    43    20    45    1
    44    20    46    1
    45    21    22    1
    46    21    47    1
    47    21    48    1
    48    22    23   ar
    49    23    49    1
    50    24    25   ar
    51    24    50    1
    52    25    26   ar
    53    25    51    1
    54    26    27    1
@<TRIPOS>SUBSTRUCTURE
     1 ZINC000469435497        1 TEMP              0 ****  ****    0 ROOT


##########                                Name:    ZINC000809503567
##########                DOCK_Rotatable_Bonds:                   9
##########                         Heavy_Atoms:                  26
##########                    Molecular_Weight:             353.378
##########                DOCK_Rotatable_Bonds:                   9
##########                       Formal_Charge:          -0.0200002
##########                     HBond_Acceptors:                   7
##########                        HBond_Donors:                   1
##########                         Heavy_Atoms:                  26
##########                          Grid_Score:          -31.600931
##########                     Grid_vdw_energy:          -27.916243
##########                      Grid_es_energy:           -3.684689
##########           Internal_energy_repulsive:            9.376801

@<TRIPOS>MOLECULE
ZINC000809503567
 45 46 1 0 0
SMALL
USER_CHARGES


@<TRIPOS>ATOM
      1 C1         -0.6403    1.0458   47.6413 C.3     1  ZINC000809503567    0.0200
      2 O2         -1.0012    0.5148   48.9181 O.3     1  ZINC000809503567   -0.3100
      3 C3         -0.9778    1.3713   49.9704 C.ar    1  ZINC000809503567    0.1900
      4 C4          0.2258    1.8964   50.4140 C.ar    1  ZINC000809503567   -0.2100
      5 C5          0.2484    2.7681   51.4854 C.ar    1  ZINC000809503567   -0.0200
      6 C6         -0.9277    3.1237   52.1242 C.ar    1  ZINC000809503567   -0.1500
      7 C7         -0.8890    4.0752   53.2921 C.3     1  ZINC000809503567    0.1700
      8 N8         -0.1641    3.4547   54.4037 N.am    1  ZINC000809503567   -0.7000
      9 C9          0.0544    4.1501   55.5374 C.2     1  ZINC000809503567    0.5100
     10 O10        -0.3480    5.2905   55.6368 O.2     1  ZINC000809503567   -0.4900
     11 C11         0.7923    3.5164   56.6721 C.2     1  ZINC000809503567    0.5100
     12 O12         1.9482    3.8167   56.8872 O.2     1  ZINC000809503567   -0.5000
     13 N13         0.1740    2.6115   57.4565 N.am    1  ZINC000809503567   -0.4600
     14 C14        -1.2221    2.2504   57.1980 C.3     1  ZINC000809503567    0.0800
     15 O15         0.8737    2.0100   58.5306 O.3     1  ZINC000809503567   -0.1100
     16 C16         0.1163    1.9181   59.7388 C.3     1  ZINC000809503567    0.0800
     17 C17         1.0020    1.4161   60.8499 C.ar    1  ZINC000809503567   -0.0900
     18 C18         1.9776    0.4737   60.5838 C.ar    1  ZINC000809503567   -0.1000
     19 C19         2.7901    0.0131   61.6031 C.ar    1  ZINC000809503567   -0.1300
     20 C20         2.6272    0.4954   62.8883 C.ar    1  ZINC000809503567   -0.1100
     21 C21         1.6521    1.4384   63.1542 C.ar    1  ZINC000809503567   -0.1300
     22 C22         0.8425    1.9021   62.1341 C.ar    1  ZINC000809503567   -0.0800
     23 C23        -2.1340    2.6114   51.6960 C.ar    1  ZINC000809503567   -0.0100
     24 C24        -2.1716    1.7335   50.6102 C.ar    1  ZINC000809503567   -0.0600
     25 C25        -3.4210    1.1977   50.1603 C.1     1  ZINC000809503567    0.2600
     26 N26        -4.4122    0.7726   49.8034 N.1     1  ZINC000809503567   -0.4100
     27 H27         0.3786    1.4309   47.6828 H       1  ZINC000809503567    0.0600
     28 H28        -0.7007    0.2583   46.8901 H       1  ZINC000809503567    0.1100
     29 H29        -1.3234    1.8531   47.3772 H       1  ZINC000809503567    0.0600
     30 H30         1.1474    1.6234   49.9216 H       1  ZINC000809503567    0.1400
     31 H31         1.1888    3.1745   51.8272 H       1  ZINC000809503567    0.1400
     32 H32        -0.3825    4.9938   52.9957 H       1  ZINC000809503567    0.0900
     33 H33        -1.9068    4.3066   53.6061 H       1  ZINC000809503567    0.0900
     34 H34         0.1586    2.5435   54.3238 H       1  ZINC000809503567    0.4100
     35 H35        -1.2575    1.4066   56.5090 H       1  ZINC000809503567    0.0800
     36 H36        -1.7055    1.9746   58.1352 H       1  ZINC000809503567    0.0800
     37 H37        -1.7419    3.1012   56.7576 H       1  ZINC000809503567    0.0900
     38 H38        -0.2717    2.9026   60.0002 H       1  ZINC000809503567    0.0700
     39 H39        -0.7140    1.2266   59.5955 H       1  ZINC000809503567    0.0600
     40 H40         2.1050    0.0969   59.5798 H       1  ZINC000809503567    0.1200
     41 H41         3.5519   -0.7236   61.3953 H       1  ZINC000809503567    0.1200
     42 H42         3.2614    0.1351   63.6847 H       1  ZINC000809503567    0.1200
     43 H43         1.5245    1.8149   64.1584 H       1  ZINC000809503567    0.1200
     44 H44         0.0806    2.6389   62.3419 H       1  ZINC000809503567    0.1300
     45 H45        -3.0488    2.8913   52.1971 H       1  ZINC000809503567    0.1400
@<TRIPOS>BOND
     1     1     2    1
     2     1    27    1
     3     1    28    1
     4     1    29    1
     5     2     3    1
     6     3    24   ar
     7     3     4   ar
     8     4     5   ar
     9     4    30    1
    10     5     6   ar
    11     5    31    1
    12     6     7    1
    13     6    23   ar
    14     7     8    1
    15     7    32    1
    16     7    33    1
    17     8     9   am
    18     8    34    1
    19     9    10    2
    20     9    11    1
    21    11    12    2
    22    11    13   am
    23    13    14    1
    24    13    15    1
    25    14    35    1
    26    14    36    1
    27    14    37    1
    28    15    16    1
    29    16    17    1
    30    16    38    1
    31    16    39    1
    32    17    22   ar
    33    17    18   ar
    34    18    19   ar
    35    18    40    1
    36    19    20   ar
    37    19    41    1
    38    20    21   ar
    39    20    42    1
    40    21    22   ar
    41    21    43    1
    42    22    44    1
    43    23    24   ar
    44    23    45    1
    45    24    25    1
    46    25    26    3
@<TRIPOS>SUBSTRUCTURE
     1 ZINC000809503567        1 TEMP              0 ****  ****    0 ROOT


##########                                Name:    ZINC000523878927
##########                DOCK_Rotatable_Bonds:                   8
##########                         Heavy_Atoms:                  27
##########                    Molecular_Weight:             376.474
##########                DOCK_Rotatable_Bonds:                   8
##########                       Formal_Charge:          0.00999957
##########                     HBond_Acceptors:                   7
##########                        HBond_Donors:                   3
##########                         Heavy_Atoms:                  27
##########                          Grid_Score:          -31.600855
##########                     Grid_vdw_energy:          -30.466473
##########                      Grid_es_energy:           -1.134383
##########           Internal_energy_repulsive:            6.715078

@<TRIPOS>MOLECULE
ZINC000523878927
 56 58 1 0 0
SMALL
USER_CHARGES


@<TRIPOS>ATOM
      1 C1        -13.3493   -0.4588   54.7659 C.3     1  ZINC000523878927   -0.1500
      2 C2        -13.8737    0.7861   54.0475 C.3     1  ZINC000523878927   -0.0900
      3 H3        -14.7445    1.1717   54.5776 H       1  ZINC000523878927    0.0700
      4 C4        -14.2693    0.4198   52.6156 C.3     1  ZINC000523878927   -0.1200
      5 C5        -13.0470   -0.1215   51.8714 C.3     1  ZINC000523878927   -0.1200
      6 C6        -11.9534    0.9482   51.8407 C.3     1  ZINC000523878927   -0.1100
      7 C7        -11.5579    1.3144   53.2726 C.3     1  ZINC000523878927   -0.1000
      8 H8        -11.1843    0.4275   53.7844 H       1  ZINC000523878927    0.0800
      9 C9        -10.4645    2.3841   53.2419 C.3     1  ZINC000523878927    0.1400
     10 N10        -9.2903    1.8622   52.5380 N.am    1  ZINC000523878927   -0.7400
     11 C11        -8.0606    2.3174   52.8493 C.2     1  ZINC000523878927    0.7200
     12 O12        -7.9257    3.1622   53.7133 O.2     1  ZINC000523878927   -0.5800
     13 N13        -6.9804    1.8361   52.2028 N.am    1  ZINC000523878927   -0.6400
     14 C14        -6.9995    0.8152   51.1395 C.3     1  ZINC000523878927    0.1000
     15 C15        -5.7006    1.0596   50.3316 C.3     1  ZINC000523878927   -0.1400
     16 C16        -4.7040    1.4501   51.4549 C.3     1  ZINC000523878927    0.1500
     17 H17        -4.2945    0.5606   51.9335 H       1  ZINC000523878927    0.1100
     18 N18        -3.6289    2.2922   50.9242 N.am    1  ZINC000523878927   -0.7300
     19 C19        -2.6814    1.7547   50.1306 C.2     1  ZINC000523878927    0.7100
     20 O20        -2.7197    0.5714   49.8538 O.2     1  ZINC000523878927   -0.5700
     21 N21        -1.6915    2.5291   49.6437 N.am    1  ZINC000523878927   -0.6800
     22 C22        -0.7068    1.9705   48.8190 C.ar    1  ZINC000523878927    0.1500
     23 C23        -0.9672    1.7573   47.4720 C.ar    1  ZINC000523878927   -0.1200
     24 C24         0.0053    1.2068   46.6603 C.ar    1  ZINC000523878927   -0.1300
     25 C25         1.2391    0.8672   47.1892 C.ar    1  ZINC000523878927    0.0800
     26 F26         2.1889    0.3285   46.3937 F       1  ZINC000523878927   -0.1400
     27 C27         1.5009    1.0796   48.5322 C.ar    1  ZINC000523878927   -0.1300
     28 C28         0.5329    1.6347   49.3462 C.ar    1  ZINC000523878927   -0.0900
     29 C29        -5.5882    2.2469   52.4370 C.3     1  ZINC000523878927    0.1200
     30 C30       -12.7802    1.8558   54.0168 C.3     1  ZINC000523878927   -0.1100
     31 H31       -13.0675   -0.1980   55.7860 H       1  ZINC000523878927    0.0500
     32 H32       -14.1283   -1.2209   54.7878 H       1  ZINC000523878927    0.0500
     33 H33       -12.4785   -0.8445   54.2358 H       1  ZINC000523878927    0.0600
     34 H34       -15.0483   -0.3422   52.6374 H       1  ZINC000523878927    0.0600
     35 H35       -14.6429    1.3068   52.1038 H       1  ZINC000523878927    0.0600
     36 H36       -12.6734   -1.0083   52.3832 H       1  ZINC000523878927    0.0700
     37 H37       -13.3288   -0.3824   50.8513 H       1  ZINC000523878927    0.0600
     38 H38       -11.0827    0.5625   51.3105 H       1  ZINC000523878927    0.0600
     39 H39       -12.3271    1.8351   51.3289 H       1  ZINC000523878927    0.0600
     40 H40       -10.8355    3.2682   52.7236 H       1  ZINC000523878927    0.0700
     41 H41       -10.1879    2.6503   54.2621 H       1  ZINC000523878927    0.0700
     42 H42        -9.3981    1.1892   51.8479 H       1  ZINC000523878927    0.3900
     43 H43        -6.9939   -0.1847   51.5735 H       1  ZINC000523878927    0.0800
     44 H44        -7.8735    0.9479   50.5019 H       1  ZINC000523878927    0.0800
     45 H45        -5.3797    0.1503   49.8234 H       1  ZINC000523878927    0.1000
     46 H46        -5.8296    1.8770   49.6222 H       1  ZINC000523878927    0.0800
     47 H47        -3.5991    3.2364   51.1440 H       1  ZINC000523878927    0.4000
     48 H48        -1.6611    3.4731   49.8645 H       1  ZINC000523878927    0.4100
     49 H49        -1.9298    2.0213   47.0593 H       1  ZINC000523878927    0.1400
     50 H50        -0.1969    1.0407   45.6125 H       1  ZINC000523878927    0.1400
     51 H51         2.4640    0.8141   48.9429 H       1  ZINC000523878927    0.1400
     52 H52         0.7376    1.8005   50.3935 H       1  ZINC000523878927    0.1500
     53 H53        -5.4760    3.3155   52.2535 H       1  ZINC000523878927    0.0700
     54 H54        -5.3056    2.0133   53.4634 H       1  ZINC000523878927    0.0800
     55 H55       -13.1538    2.7427   53.5049 H       1  ZINC000523878927    0.0700
     56 H56       -12.4984    2.1167   55.0369 H       1  ZINC000523878927    0.0700
@<TRIPOS>BOND
     1     1     2    1
     2     1    31    1
     3     1    32    1
     4     1    33    1
     5     2     3    1
     6     2    30    1
     7     2     4    1
     8     4     5    1
     9     4    34    1
    10     4    35    1
    11     5     6    1
    12     5    36    1
    13     5    37    1
    14     6     7    1
    15     6    38    1
    16     6    39    1
    17     7     8    1
    18     7     9    1
    19     7    30    1
    20     9    10    1
    21     9    40    1
    22     9    41    1
    23    10    11   am
    24    10    42    1
    25    11    12    2
    26    11    13   am
    27    13    29    1
    28    13    14    1
    29    14    15    1
    30    14    43    1
    31    14    44    1
    32    15    16    1
    33    15    45    1
    34    15    46    1
    35    16    17    1
    36    16    18    1
    37    16    29    1
    38    18    19   am
    39    18    47    1
    40    19    20    2
    41    19    21   am
    42    21    22    1
    43    21    48    1
    44    22    28   ar
    45    22    23   ar
    46    23    24   ar
    47    23    49    1
    48    24    25   ar
    49    24    50    1
    50    25    26    1
    51    25    27   ar
    52    27    28   ar
    53    27    51    1
    54    28    52    1
    55    29    53    1
    56    29    54    1
    57    30    55    1
    58    30    56    1
@<TRIPOS>SUBSTRUCTURE
     1 ZINC000523878927        1 TEMP              0 ****  ****    0 ROOT


##########                                Name:    ZINC000979274057
##########                DOCK_Rotatable_Bonds:                   6
##########                         Heavy_Atoms:                  24
##########                    Molecular_Weight:              330.39
##########                DOCK_Rotatable_Bonds:                   6
##########                       Formal_Charge:          0.00999946
##########                     HBond_Acceptors:                   8
##########                        HBond_Donors:                   1
##########                         Heavy_Atoms:                  24
##########                          Grid_Score:          -31.600563
##########                     Grid_vdw_energy:          -29.267534
##########                      Grid_es_energy:           -2.333028
##########           Internal_energy_repulsive:            8.511869

@<TRIPOS>MOLECULE
ZINC000979274057
 46 48 1 0 0
SMALL
USER_CHARGES


@<TRIPOS>ATOM
      1 C1         -5.8124    0.0134   50.8466 C.3     1  ZINC000979274057   -0.1400
      2 C2         -5.4142    1.4566   51.1622 C.3     1  ZINC000979274057    0.1000
      3 H3         -5.7455    1.7132   52.1684 H       1  ZINC000979274057    0.0600
      4 N4         -6.0456    2.3619   50.1929 N.3     1  ZINC000979274057   -0.6700
      5 C5         -7.1450    3.1133   50.8132 C.3     1  ZINC000979274057    0.1300
      6 C6         -7.7060    4.0962   49.8180 C.ar    1  ZINC000979274057    0.3200
      7 N7         -6.9228    4.5630   48.8663 N.ar    1  ZINC000979274057   -0.5200
      8 C8         -7.3804    5.4273   47.9748 C.ar    1  ZINC000979274057    0.1500
      9 C9         -8.7013    5.8399   48.0521 C.ar    1  ZINC000979274057   -0.2300
     10 C10        -9.4938    5.3269   49.0668 C.ar    1  ZINC000979274057    0.1500
     11 N11        -8.9682    4.4618   49.9192 N.ar    1  ZINC000979274057   -0.5000
     12 C12        -3.8931    1.5966   51.0750 C.3     1  ZINC000979274057    0.0800
     13 H13        -3.4228    0.8956   51.7645 H       1  ZINC000979274057    0.0700
     14 C14        -3.4886    3.0281   51.4453 C.3     1  ZINC000979274057    0.0800
     15 N15        -2.0513    3.1891   51.1740 N.am    1  ZINC000979274057   -0.6000
     16 C16        -1.2211    3.6932   52.1084 C.2     1  ZINC000979274057    0.6100
     17 O17        -0.0361    3.8183   51.8651 O.2     1  ZINC000979274057   -0.5400
     18 C18        -1.7489    4.0928   53.4244 C.2     1  ZINC000979274057   -0.0600
     19 C19        -1.6386    3.3860   54.5860 C.2     1  ZINC000979274057    0.0400
     20 N20        -2.2584    4.1105   55.5471 N.pl3   1  ZINC000979274057   -0.4600
     21 C21        -2.3892    3.7404   56.9585 C.3     1  ZINC000979274057    0.0700
     22 C22        -2.7369    5.2424   54.9682 C.2     1  ZINC000979274057    0.1900
     23 N23        -2.4288    5.2343   53.7034 N.2     1  ZINC000979274057   -0.4600
     24 C24        -1.5470    2.7832   49.8525 C.3     1  ZINC000979274057    0.0500
     25 C25        -2.0462    1.3636   49.5598 C.3     1  ZINC000979274057    0.0500
     26 O26        -3.4634    1.3152   49.7408 O.3     1  ZINC000979274057   -0.3600
     27 H27        -6.8960   -0.0863   50.9088 H       1  ZINC000979274057    0.0600
     28 H28        -5.4811   -0.2432   49.8404 H       1  ZINC000979274057    0.0700
     29 H29        -5.3438   -0.6584   51.5658 H       1  ZINC000979274057    0.0600
     30 H30        -5.3658    2.9863   49.7852 H       1  ZINC000979274057    0.3500
     31 H31        -7.9289    2.4217   51.1221 H       1  ZINC000979274057    0.1000
     32 H32        -6.7713    3.6515   51.6842 H       1  ZINC000979274057    0.0600
     33 H33        -6.7332    5.8063   47.1977 H       1  ZINC000979274057    0.1700
     34 H34        -9.1032    6.5446   47.3391 H       1  ZINC000979274057    0.1500
     35 H35       -10.5275    5.6261   49.1583 H       1  ZINC000979274057    0.1700
     36 H36        -4.0574    3.7375   50.8440 H       1  ZINC000979274057    0.0700
     37 H37        -3.6844    3.2029   52.5031 H       1  ZINC000979274057    0.1000
     38 H38        -1.1505    2.4312   54.7143 H       1  ZINC000979274057    0.1900
     39 H39        -1.5374    4.1291   57.5166 H       1  ZINC000979274057    0.0800
     40 H40        -3.3103    4.1621   57.3609 H       1  ZINC000979274057    0.0900
     41 H41        -2.4173    2.6545   57.0484 H       1  ZINC000979274057    0.0900
     42 H42        -3.2814    6.0247   55.4761 H       1  ZINC000979274057    0.2100
     43 H43        -1.9203    3.4679   49.0909 H       1  ZINC000979274057    0.0700
     44 H44        -0.4572    2.7958   49.8557 H       1  ZINC000979274057    0.1500
     45 H45        -1.8010    1.0962   48.5319 H       1  ZINC000979274057    0.1100
     46 H46        -1.5684    0.6616   50.2432 H       1  ZINC000979274057    0.0500
@<TRIPOS>BOND
     1     1     2    1
     2     1    27    1
     3     1    28    1
     4     1    29    1
     5     2     3    1
     6     2     4    1
     7     2    12    1
     8     4     5    1
     9     4    30    1
    10     5     6    1
    11     5    31    1
    12     5    32    1
    13     6    11   ar
    14     6     7   ar
    15     7     8   ar
    16     8     9   ar
    17     8    33    1
    18     9    10   ar
    19     9    34    1
    20    10    11   ar
    21    10    35    1
    22    12    13    1
    23    12    26    1
    24    12    14    1
    25    14    15    1
    26    14    36    1
    27    14    37    1
    28    15    16   am
    29    15    24    1
    30    16    17    2
    31    16    18    1
    32    18    23    1
    33    18    19    2
    34    19    20    1
    35    19    38    1
    36    20    21    1
    37    20    22    1
    38    21    39    1
    39    21    40    1
    40    21    41    1
    41    22    23    2
    42    22    42    1
    43    24    25    1
    44    24    43    1
    45    24    44    1
    46    25    26    1
    47    25    45    1
    48    25    46    1
@<TRIPOS>SUBSTRUCTURE
     1 ZINC000979274057        1 TEMP              0 ****  ****    0 ROOT


##########                                Name:    ZINC000465392830
##########                DOCK_Rotatable_Bonds:                   8
##########                         Heavy_Atoms:                  29
##########                    Molecular_Weight:             419.588
##########                DOCK_Rotatable_Bonds:                   8
##########                       Formal_Charge:           0.0199996
##########                     HBond_Acceptors:                   7
##########                        HBond_Donors:                   0
##########                         Heavy_Atoms:                  29
##########                          Grid_Score:          -31.593410
##########                     Grid_vdw_energy:          -31.992025
##########                      Grid_es_energy:            0.398615
##########           Internal_energy_repulsive:           56.491375

@<TRIPOS>MOLECULE
ZINC000465392830
 62 64 1 0 0
SMALL
USER_CHARGES


@<TRIPOS>ATOM
      1 C1        -10.2633   -1.5026   58.0852 C.3     1  ZINC000465392830    0.0400
      2 O2         -8.8269   -1.4064   58.2744 O.3     1  ZINC000465392830   -0.3600
      3 C3         -8.3558   -0.2614   58.7927 C.2     1  ZINC000465392830    0.4600
      4 O4         -7.1700   -0.1264   58.9814 O.2     1  ZINC000465392830   -0.4900
      5 C5         -9.3060    0.8557   59.1395 C.3     1  ZINC000465392830    0.1500
      6 H6        -10.1470    0.8555   58.4461 H       1  ZINC000465392830    0.1100
      7 C7         -9.8173    0.6803   60.5849 C.3     1  ZINC000465392830   -0.1100
      8 C8         -9.8655    2.1374   61.1158 C.3     1  ZINC000465392830   -0.0900
      9 H9        -10.7849    2.6353   60.8075 H       1  ZINC000465392830    0.1000
     10 C10        -9.7102    2.1721   62.6375 C.3     1  ZINC000465392830   -0.0800
     11 C11       -10.8434    1.3730   63.2841 C.3     1  ZINC000465392830   -0.1200
     12 C12       -10.6882    1.4077   64.8057 C.3     1  ZINC000465392830   -0.1200
     13 C13        -9.3429    0.7917   65.1954 C.3     1  ZINC000465392830   -0.1200
     14 C14        -8.2097    1.5908   64.5488 C.3     1  ZINC000465392830   -0.1200
     15 C15        -8.3650    1.5561   63.0271 C.3     1  ZINC000465392830   -0.1200
     16 C16        -8.6334    2.7641   60.4166 C.3     1  ZINC000465392830    0.1000
     17 N17        -8.6049    2.1465   59.0747 N.am    1  ZINC000465392830   -0.6100
     18 C18        -8.0294    2.6773   57.9777 C.2     1  ZINC000465392830    0.5400
     19 O19        -7.4764    3.7547   58.0440 O.2     1  ZINC000465392830   -0.5300
     20 C20        -8.0729    1.9320   56.6686 C.3     1  ZINC000465392830   -0.1300
     21 C21        -8.6878    2.8282   55.5917 C.3     1  ZINC000465392830   -0.0600
     22 C22        -8.1941    2.3947   54.2354 C.ar    1  ZINC000465392830   -0.2000
     23 C23        -8.9036    1.4689   53.4863 C.ar    1  ZINC000465392830    0.2000
     24 C24       -10.1848    0.8793   54.0174 C.3     1  ZINC000465392830   -0.1100
     25 N25        -8.4429    1.1097   52.2998 N.ar    1  ZINC000465392830   -0.5000
     26 C26        -7.3170    1.6244   51.8260 C.ar    1  ZINC000465392830    0.3000
     27 S27        -6.7397    1.1175   50.2403 S.3     1  ZINC000465392830    0.0000
     28 C28        -4.9816    0.8883   50.6043 C.3     1  ZINC000465392830   -0.1400
     29 N29        -6.6154    2.5119   52.5168 N.ar    1  ZINC000465392830   -0.5300
     30 C30        -7.0237    2.9174   53.7077 C.ar    1  ZINC000465392830    0.2000
     31 C31        -6.2200    3.9266   54.4865 C.3     1  ZINC000465392830   -0.1100
     32 H32       -10.7649   -1.3880   59.0461 H       1  ZINC000465392830    0.0600
     33 H33       -10.5939   -0.7161   57.4067 H       1  ZINC000465392830    0.0600
     34 H34       -10.5095   -2.4759   57.6607 H       1  ZINC000465392830    0.1000
     35 H35       -10.8120    0.2346   60.5906 H       1  ZINC000465392830    0.1000
     36 H36        -9.1211    0.0795   61.1700 H       1  ZINC000465392830    0.0800
     37 H37        -9.7506    3.2050   62.9833 H       1  ZINC000465392830    0.0800
     38 H38       -11.8018    1.8118   63.0065 H       1  ZINC000465392830    0.0600
     39 H39       -10.8030    0.3401   62.9382 H       1  ZINC000465392830    0.0700
     40 H40       -10.7287    2.4407   65.1517 H       1  ZINC000465392830    0.0600
     41 H41       -11.4955    0.8384   65.2664 H       1  ZINC000465392830    0.0600
     42 H42        -9.2323    0.8165   66.2795 H       1  ZINC000465392830    0.0600
     43 H43        -9.3025   -0.2412   64.8495 H       1  ZINC000465392830    0.0600
     44 H44        -8.2501    2.6237   64.8946 H       1  ZINC000465392830    0.0600
     45 H45        -7.2513    1.1520   64.8263 H       1  ZINC000465392830    0.0600
     46 H46        -8.3245    0.5232   62.6812 H       1  ZINC000465392830    0.0700
     47 H47        -7.5576    2.1254   62.5664 H       1  ZINC000465392830    0.0600
     48 H48        -8.7532    3.8442   60.3331 H       1  ZINC000465392830    0.0900
     49 H49        -7.7228    2.5238   60.9655 H       1  ZINC000465392830    0.0800
     50 H50        -7.0606    1.6537   56.3752 H       1  ZINC000465392830    0.1000
     51 H51        -8.6784    1.0329   56.7824 H       1  ZINC000465392830    0.1000
     52 H52        -9.7740    2.7451   55.6266 H       1  ZINC000465392830    0.0900
     53 H53        -8.3966    3.8632   55.7706 H       1  ZINC000465392830    0.0900
     54 H54       -11.0259    1.4993   53.7075 H       1  ZINC000465392830    0.0900
     55 H55       -10.3118   -0.1288   53.6227 H       1  ZINC000465392830    0.0900
     56 H56       -10.1433    0.8408   55.1059 H       1  ZINC000465392830    0.0900
     57 H57        -4.5563    1.8305   50.9501 H       1  ZINC000465392830    0.0900
     58 H58        -4.8668    0.1315   51.3802 H       1  ZINC000465392830    0.0900
     59 H59        -4.4629    0.5651   49.7018 H       1  ZINC000465392830    0.1100
     60 H60        -6.5560    4.9321   54.2332 H       1  ZINC000465392830    0.0900
     61 H61        -6.3585    3.7555   55.5540 H       1  ZINC000465392830    0.0900
     62 H62        -5.1645    3.8222   54.2357 H       1  ZINC000465392830    0.0800
@<TRIPOS>BOND
     1     1     2    1
     2     1    32    1
     3     1    33    1
     4     1    34    1
     5     2     3    1
     6     3     4    2
     7     3     5    1
     8     5     6    1
     9     5    17    1
    10     5     7    1
    11     7     8    1
    12     7    35    1
    13     7    36    1
    14     8     9    1
    15     8    10    1
    16     8    16    1
    17    10    15    1
    18    10    11    1
    19    10    37    1
    20    11    12    1
    21    11    38    1
    22    11    39    1
    23    12    13    1
    24    12    40    1
    25    12    41    1
    26    13    14    1
    27    13    42    1
    28    13    43    1
    29    14    15    1
    30    14    44    1
    31    14    45    1
    32    15    46    1
    33    15    47    1
    34    16    17    1
    35    16    48    1
    36    16    49    1
    37    17    18   am
    38    18    19    2
    39    18    20    1
    40    20    21    1
    41    20    50    1
    42    20    51    1
    43    21    22    1
    44    21    52    1
    45    21    53    1
    46    22    30   ar
    47    22    23   ar
    48    23    24    1
    49    23    25   ar
    50    24    54    1
    51    24    55    1
    52    24    56    1
    53    25    26   ar
    54    26    27    1
    55    26    29   ar
    56    27    28    1
    57    28    57    1
    58    28    58    1
    59    28    59    1
    60    29    30   ar
    61    30    31    1
    62    31    60    1
    63    31    61    1
    64    31    62    1
@<TRIPOS>SUBSTRUCTURE
     1 ZINC000465392830        1 TEMP              0 ****  ****    0 ROOT


##########                                Name:    ZINC000671418508
##########                DOCK_Rotatable_Bonds:                   9
##########                         Heavy_Atoms:                  28
##########                    Molecular_Weight:             405.884
##########                DOCK_Rotatable_Bonds:                   9
##########                       Formal_Charge:         -1.3411e-07
##########                     HBond_Acceptors:                   9
##########                        HBond_Donors:                   2
##########                         Heavy_Atoms:                  28
##########                          Grid_Score:          -31.592009
##########                     Grid_vdw_energy:          -28.987717
##########                      Grid_es_energy:           -2.604292
##########           Internal_energy_repulsive:           16.690004

@<TRIPOS>MOLECULE
ZINC000671418508
 52 54 1 0 0
SMALL
USER_CHARGES


@<TRIPOS>ATOM
      1 C1          1.4391   -0.6629   63.9367 C.3     1  ZINC000671418508    0.1000
      2 N2          0.9482    0.0362   62.7464 N.pl3   1  ZINC000671418508   -0.3700
      3 C3          1.4140   -0.1141   61.4889 C.2     1  ZINC000671418508    0.0800
      4 C4          0.6988    0.7049   60.6835 C.2     1  ZINC000671418508   -0.2700
      5 C5          0.8775    0.8625   59.1954 C.3     1  ZINC000671418508    0.2000
      6 N6          0.4844    2.2164   58.7970 N.am    1  ZINC000671418508   -0.6900
      7 C7          1.1625    2.8560   57.8235 C.2     1  ZINC000671418508    0.5100
      8 O8          2.0994    2.3109   57.2780 O.2     1  ZINC000671418508   -0.5100
      9 C9          0.7604    4.2364   57.4160 C.2     1  ZINC000671418508    0.5100
     10 O10         1.3366    5.1982   57.8801 O.2     1  ZINC000671418508   -0.5200
     11 N11        -0.2424    4.4131   56.5328 N.am    1  ZINC000671418508   -0.5800
     12 C12        -0.6499    5.7627   56.1135 C.3     1  ZINC000671418508    0.0800
     13 C13        -0.6796    5.8084   54.5821 C.3     1  ZINC000671418508    0.0400
     14 N14        -1.5273    4.7193   54.0792 N.3     1  ZINC000671418508   -0.5200
     15 C15        -1.7213    4.8307   52.6274 C.3     1  ZINC000671418508    0.1300
     16 H16        -0.7533    4.7948   52.1276 H       1  ZINC000671418508    0.0600
     17 C17        -2.4125    6.1572   52.3055 C.3     1  ZINC000671418508    0.0900
     18 O18        -1.4960    7.0200   51.6291 O.3     1  ZINC000671418508   -0.5500
     19 C19        -2.5779    3.6881   52.1459 C.ar    1  ZINC000671418508   -0.0800
     20 C20        -2.0247    2.6920   51.3630 C.ar    1  ZINC000671418508   -0.0600
     21 C21        -2.8099    1.6438   50.9211 C.ar    1  ZINC000671418508   -0.1200
     22 C22        -4.1496    1.5916   51.2625 C.ar    1  ZINC000671418508   -0.0300
     23 Cl23       -5.1362    0.2752   50.7083 Cl      1  ZINC000671418508   -0.0700
     24 C24        -4.7027    2.5888   52.0460 C.ar    1  ZINC000671418508   -0.1200
     25 C25        -3.9152    3.6335   52.4920 C.ar    1  ZINC000671418508   -0.1100
     26 C26        -0.9755    3.4058   54.4374 C.3     1  ZINC000671418508    0.0400
     27 C27        -0.9540    3.2614   55.9581 C.3     1  ZINC000671418508    0.1100
     28 C28        -0.2362    1.3787   61.4759 C.2     1  ZINC000671418508    0.0700
     29 N29        -0.0917    0.9741   62.7118 N.2     1  ZINC000671418508   -0.2900
     30 H30         0.8841   -1.5920   64.0671 H       1  ZINC000671418508    0.0800
     31 H31         2.4989   -0.8867   63.8153 H       1  ZINC000671418508    0.0900
     32 H32         1.2993   -0.0302   64.8131 H       1  ZINC000671418508    0.0900
     33 H33         2.2146   -0.7702   61.1806 H       1  ZINC000671418508    0.1800
     34 H34         1.9229    0.6963   58.9354 H       1  ZINC000671418508    0.0800
     35 H35         0.2537    0.1353   58.6755 H       1  ZINC000671418508    0.0800
     36 H36        -0.2637    2.6526   59.2340 H       1  ZINC000671418508    0.4100
     37 H37        -1.6426    5.9838   56.5057 H       1  ZINC000671418508    0.0800
     38 H38         0.0661    6.4943   56.4880 H       1  ZINC000671418508    0.1400
     39 H39        -1.0850    6.7658   54.2547 H       1  ZINC000671418508    0.0900
     40 H40         0.3325    5.6901   54.1950 H       1  ZINC000671418508    0.0400
     41 H41        -3.2758    5.9713   51.6664 H       1  ZINC000671418508    0.0500
     42 H42        -2.7408    6.6299   53.2312 H       1  ZINC000671418508    0.0500
     43 H43        -1.2019    6.6859   50.7706 H       1  ZINC000671418508    0.3800
     44 H44        -0.9790    2.7330   51.0963 H       1  ZINC000671418508    0.1400
     45 H45        -2.3777    0.8659   50.3092 H       1  ZINC000671418508    0.1300
     46 H46        -5.7485    2.5488   52.3125 H       1  ZINC000671418508    0.1300
     47 H47        -4.3467    4.4118   53.1040 H       1  ZINC000671418508    0.1300
     48 H48        -1.5956    2.6206   54.0048 H       1  ZINC000671418508    0.0900
     49 H49         0.0406    3.3209   54.0523 H       1  ZINC000671418508    0.0400
     50 H50        -0.4414    2.3389   56.2311 H       1  ZINC000671418508    0.1000
     51 H51        -1.9752    3.2424   56.3387 H       1  ZINC000671418508    0.0800
     52 H52        -0.9565    2.1039   61.1272 H       1  ZINC000671418508    0.1900
@<TRIPOS>BOND
     1     1     2    1
     2     1    30    1
     3     1    31    1
     4     1    32    1
     5     2    29    1
     6     2     3    1
     7     3     4    2
     8     3    33    1
     9     4     5    1
    10     4    28    1
    11     5     6    1
    12     5    34    1
    13     5    35    1
    14     6     7   am
    15     6    36    1
    16     7     8    2
    17     7     9    1
    18     9    10    2
    19     9    11   am
    20    11    27    1
    21    11    12    1
    22    12    13    1
    23    12    37    1
    24    12    38    1
    25    13    14    1
    26    13    39    1
    27    13    40    1
    28    14    15    1
    29    14    26    1
    30    15    16    1
    31    15    17    1
    32    15    19    1
    33    17    18    1
    34    17    41    1
    35    17    42    1
    36    18    43    1
    37    19    25   ar
    38    19    20   ar
    39    20    21   ar
    40    20    44    1
    41    21    22   ar
    42    21    45    1
    43    22    23    1
    44    22    24   ar
    45    24    25   ar
    46    24    46    1
    47    25    47    1
    48    26    27    1
    49    26    48    1
    50    26    49    1
    51    27    50    1
    52    27    51    1
    53    28    29    2
    54    28    52    1
@<TRIPOS>SUBSTRUCTURE
     1 ZINC000671418508        1 TEMP              0 ****  ****    0 ROOT


##########                                Name:    ZINC000179496896
##########                DOCK_Rotatable_Bonds:                   8
##########                         Heavy_Atoms:                  27
##########                    Molecular_Weight:             396.504
##########                DOCK_Rotatable_Bonds:                   8
##########                       Formal_Charge:          0.00999944
##########                     HBond_Acceptors:                   8
##########                        HBond_Donors:                   1
##########                         Heavy_Atoms:                  27
##########                          Grid_Score:          -31.590647
##########                     Grid_vdw_energy:          -29.713346
##########                      Grid_es_energy:           -1.877300
##########           Internal_energy_repulsive:           26.365034

@<TRIPOS>MOLECULE
ZINC000179496896
 53 55 1 0 0
SMALL
USER_CHARGES


@<TRIPOS>ATOM
      1 C1         -7.8544    2.4302   64.7980 C.3     1  ZINC000179496896   -0.1500
      2 C2         -8.2660    1.0108   64.4019 C.3     1  ZINC000179496896   -0.1100
      3 C3         -8.6786    0.2318   65.6525 C.3     1  ZINC000179496896   -0.1400
      4 C4         -9.4447    1.0743   63.4286 C.3     1  ZINC000179496896    0.1200
      5 N5         -9.0363    1.7821   62.2126 N.pl3   1  ZINC000179496896   -0.3300
      6 N6         -9.1221    3.1629   62.0024 N.2     1  ZINC000179496896   -0.2700
      7 C7         -8.6696    3.4378   60.8103 C.2     1  ZINC000179496896    0.0800
      8 C8         -8.2713    2.2255   60.2037 C.2     1  ZINC000179496896   -0.2500
      9 C9         -7.6999    2.0687   58.8537 C.2     1  ZINC000179496896    0.5900
     10 O10        -7.2136    1.0056   58.5189 O.2     1  ZINC000179496896   -0.5300
     11 N11        -7.7166    3.1037   57.9905 N.am    1  ZINC000179496896   -0.7100
     12 C12        -7.1472    2.9483   56.6496 C.3     1  ZINC000179496896    0.1300
     13 C13        -7.8075    3.9465   55.6965 C.3     1  ZINC000179496896    0.0700
     14 H14        -8.8684    4.0275   55.9331 H       1  ZINC000179496896    0.0900
     15 C15        -7.1441    5.3163   55.8527 C.3     1  ZINC000179496896   -0.1900
     16 N16        -7.6488    3.4806   54.3124 N.3     1  ZINC000179496896   -0.5300
     17 C17        -8.5294    2.3363   54.0375 C.3     1  ZINC000179496896    0.0600
     18 C18        -8.6378    2.1399   52.5205 C.3     1  ZINC000179496896   -0.0400
     19 C19        -7.2378    2.1541   51.9438 C.2     1  ZINC000179496896   -0.1700
     20 C20        -6.1548    2.6055   52.6071 C.2     1  ZINC000179496896   -0.1100
     21 C21        -4.9760    2.5175   51.8755 C.2     1  ZINC000179496896   -0.1200
     22 C22        -5.0943    2.0105   50.6515 C.2     1  ZINC000179496896   -0.2200
     23 S23        -6.7753    1.5986   50.3436 S.3     1  ZINC000179496896    0.1000
     24 C24        -6.2454    3.1554   54.0241 C.3     1  ZINC000179496896    0.1200
     25 C25        -8.5112    1.2160   61.1143 C.2     1  ZINC000179496896    0.0700
     26 C26        -8.2427   -0.2526   60.9092 C.3     1  ZINC000179496896    0.3400
     27 F27        -7.9359   -0.8467   62.1380 F       1  ZINC000179496896   -0.1500
     28 F28        -9.3786   -0.8630   60.3668 F       1  ZINC000179496896   -0.2000
     29 H29        -7.0148    2.3849   65.4914 H       1  ZINC000179496896    0.0600
     30 H30        -7.5605    2.9851   63.9070 H       1  ZINC000179496896    0.0600
     31 H31        -8.6950    2.9317   65.2775 H       1  ZINC000179496896    0.0600
     32 H32        -7.4253    0.5092   63.9224 H       1  ZINC000179496896    0.0800
     33 H33        -9.5192    0.7333   66.1319 H       1  ZINC000179496896    0.0600
     34 H34        -8.9718   -0.7795   65.3703 H       1  ZINC000179496896    0.0600
     35 H35        -7.8389    0.1864   66.3459 H       1  ZINC000179496896    0.0700
     36 H36        -9.7588    0.0626   63.1718 H       1  ZINC000179496896    0.1000
     37 H37       -10.2741    1.6046   63.8965 H       1  ZINC000179496896    0.1000
     38 H38        -8.6101    4.4198   60.3648 H       1  ZINC000179496896    0.2000
     39 H39        -8.1055    3.9513   58.2571 H       1  ZINC000179496896    0.4100
     40 H40        -6.0742    3.1365   56.6865 H       1  ZINC000179496896    0.0700
     41 H41        -7.3262    1.9336   56.2942 H       1  ZINC000179496896    0.0700
     42 H42        -7.6145    6.0274   55.1737 H       1  ZINC000179496896    0.0600
     43 H43        -7.2619    5.6620   56.8797 H       1  ZINC000179496896    0.0700
     44 H44        -6.0832    5.2353   55.6161 H       1  ZINC000179496896    0.0600
     45 H45        -8.1122    1.4378   54.4924 H       1  ZINC000179496896    0.0400
     46 H46        -9.5188    2.5300   54.4516 H       1  ZINC000179496896    0.0900
     47 H47        -9.1145    1.1834   52.3062 H       1  ZINC000179496896    0.0800
     48 H48        -9.2235    2.9496   52.0854 H       1  ZINC000179496896    0.0900
     49 H49        -4.0258    2.8400   52.2749 H       1  ZINC000179496896    0.1400
     50 H50        -4.2817    1.8729   49.9534 H       1  ZINC000179496896    0.1600
     51 H51        -5.6368    4.0559   54.1067 H       1  ZINC000179496896    0.0900
     52 H52        -5.8911    2.4052   54.7310 H       1  ZINC000179496896    0.0500
     53 H53        -7.4025   -0.3765   60.2260 H       1  ZINC000179496896    0.1300
@<TRIPOS>BOND
     1     1     2    1
     2     1    29    1
     3     1    30    1
     4     1    31    1
     5     2     3    1
     6     2     4    1
     7     2    32    1
     8     3    33    1
     9     3    34    1
    10     3    35    1
    11     4     5    1
    12     4    36    1
    13     4    37    1
    14     5    25    1
    15     5     6    1
    16     6     7    2
    17     7     8    1
    18     7    38    1
    19     8     9    1
    20     8    25    2
    21     9    10    2
    22     9    11   am
    23    11    12    1
    24    11    39    1
    25    12    13    1
    26    12    40    1
    27    12    41    1
    28    13    14    1
    29    13    15    1
    30    13    16    1
    31    15    42    1
    32    15    43    1
    33    15    44    1
    34    16    24    1
    35    16    17    1
    36    17    18    1
    37    17    45    1
    38    17    46    1
    39    18    19    1
    40    18    47    1
    41    18    48    1
    42    19    23    1
    43    19    20    2
    44    20    21    1
    45    20    24    1
    46    21    22    2
    47    21    49    1
    48    22    23    1
    49    22    50    1
    50    24    51    1
    51    24    52    1
    52    25    26    1
    53    26    27    1
    54    26    28    1
    55    26    53    1
@<TRIPOS>SUBSTRUCTURE
     1 ZINC000179496896        1 TEMP              0 ****  ****    0 ROOT


##########                                Name:    ZINC000899027326
##########                DOCK_Rotatable_Bonds:                   5
##########                         Heavy_Atoms:                  22
##########                    Molecular_Weight:             346.169
##########                DOCK_Rotatable_Bonds:                   5
##########                       Formal_Charge:           0.0300005
##########                     HBond_Acceptors:                   9
##########                        HBond_Donors:                   1
##########                         Heavy_Atoms:                  22
##########                          Grid_Score:          -31.562706
##########                     Grid_vdw_energy:          -30.395552
##########                      Grid_es_energy:           -1.167155
##########           Internal_energy_repulsive:           16.745375

@<TRIPOS>MOLECULE
ZINC000899027326
 35 36 1 0 0
SMALL
USER_CHARGES


@<TRIPOS>ATOM
      1 C1         -6.6072    1.8829   50.3709 C.3     1  ZINC000899027326   -0.1500
      2 C2         -5.5013    1.4970   51.3554 C.3     1  ZINC000899027326    0.1100
      3 H3         -5.9218    0.9861   52.2216 H       1  ZINC000899027326    0.1400
      4 C4         -4.4620    0.6276   50.6759 C.2     1  ZINC000899027326    0.5300
      5 O5         -4.6347   -0.4612   50.1714 O.2     1  ZINC000899027326   -0.4500
      6 N6         -3.3063    1.3170   50.7487 N.am    1  ZINC000899027326   -0.3700
      7 N7         -2.0853    0.8629   50.2334 N.am    1  ZINC000899027326   -0.5000
      8 C8         -1.6658    1.2843   49.0238 C.2     1  ZINC000899027326    0.5200
      9 O9         -2.3448    2.0577   48.3822 O.2     1  ZINC000899027326   -0.4800
     10 C10        -0.3532    0.7945   48.4688 C.3     1  ZINC000899027326    0.0500
     11 O11        -0.4213    0.7635   47.0417 O.3     1  ZINC000899027326   -0.2700
     12 C12        -0.2461    1.9434   46.3897 C.ar    1  ZINC000899027326    0.1400
     13 C13        -0.0100    3.1054   47.1084 C.ar    1  ZINC000899027326   -0.1900
     14 C14         0.1678    4.3040   46.4440 C.ar    1  ZINC000899027326   -0.0600
     15 C15         0.1104    4.3457   45.0625 C.ar    1  ZINC000899027326   -0.0600
     16 Cl16        0.3348    5.8529   44.2307 Cl      1  ZINC000899027326   -0.0500
     17 C17        -0.1252    3.1876   44.3425 C.ar    1  ZINC000899027326   -0.0600
     18 C18        -0.2978    1.9858   45.0028 C.ar    1  ZINC000899027326   -0.0500
     19 Cl19       -0.5933    0.5328   44.0997 Cl      1  ZINC000899027326   -0.0300
     20 C20        -3.4693    2.4889   51.3732 C.2     1  ZINC000899027326    0.7000
     21 O21        -2.5706    3.2855   51.5602 O.2     1  ZINC000899027326   -0.5200
     22 N22        -4.7415    2.6876   51.7742 N.am    1  ZINC000899027326   -0.6200
     23 C23        -5.2633    3.8589   52.4826 C.3     1  ZINC000899027326    0.1200
     24 H24        -6.1670    2.3808   49.5069 H       1  ZINC000899027326    0.0700
     25 H25        -7.1325    0.9855   50.0445 H       1  ZINC000899027326    0.0900
     26 H26        -7.3098    2.5576   50.8600 H       1  ZINC000899027326    0.0900
     27 H27        -1.5416    0.2452   50.7471 H       1  ZINC000899027326    0.4300
     28 H28         0.4464    1.4667   48.7799 H       1  ZINC000899027326    0.1100
     29 H29        -0.1514   -0.2086   48.8447 H       1  ZINC000899027326    0.1100
     30 H30         0.0347    3.0738   48.1871 H       1  ZINC000899027326    0.1500
     31 H31         0.3514    5.2091   47.0038 H       1  ZINC000899027326    0.1500
     32 H32        -0.1696    3.2221   43.2640 H       1  ZINC000899027326    0.1500
     33 H33        -4.4563    4.5728   52.6480 H       1  ZINC000899027326    0.0900
     34 H34        -6.0452    4.3268   51.8845 H       1  ZINC000899027326    0.0700
     35 H35        -5.6765    3.5489   53.4424 H       1  ZINC000899027326    0.0700
@<TRIPOS>BOND
     1     1     2    1
     2     1    24    1
     3     1    25    1
     4     1    26    1
     5     2     3    1
     6     2    22    1
     7     2     4    1
     8     4     5    2
     9     4     6   am
    10     6     7    1
    11     6    20   am
    12     7     8   am
    13     7    27    1
    14     8     9    2
    15     8    10    1
    16    10    11    1
    17    10    28    1
    18    10    29    1
    19    11    12    1
    20    12    18   ar
    21    12    13   ar
    22    13    14   ar
    23    13    30    1
    24    14    15   ar
    25    14    31    1
    26    15    16    1
    27    15    17   ar
    28    17    18   ar
    29    17    32    1
    30    18    19    1
    31    20    21    2
    32    20    22   am
    33    22    23    1
    34    23    33    1
    35    23    34    1
    36    23    35    1
@<TRIPOS>SUBSTRUCTURE
     1 ZINC000899027326        1 TEMP              0 ****  ****    0 ROOT


##########                                Name:    ZINC000369046711
##########                DOCK_Rotatable_Bonds:                   8
##########                         Heavy_Atoms:                  26
##########                    Molecular_Weight:             367.467
##########                DOCK_Rotatable_Bonds:                   8
##########                       Formal_Charge:        -7.63685e-07
##########                     HBond_Acceptors:                   8
##########                        HBond_Donors:                   1
##########                         Heavy_Atoms:                  26
##########                          Grid_Score:          -31.558514
##########                     Grid_vdw_energy:          -30.612680
##########                      Grid_es_energy:           -0.945833
##########           Internal_energy_repulsive:           16.798895

@<TRIPOS>MOLECULE
ZINC000369046711
 56 58 1 0 0
SMALL
USER_CHARGES


@<TRIPOS>ATOM
      1 C1          5.0326    0.5382   44.4980 C.3     1  ZINC000369046711   -0.1800
      2 C2          3.7278    1.2320   44.8944 C.3     1  ZINC000369046711    0.1400
      3 C3          3.9154    2.7489   44.8255 C.3     1  ZINC000369046711   -0.1800
      4 C4          2.6142    0.8116   43.9332 C.3     1  ZINC000369046711   -0.1400
      5 O5          3.3684    0.8498   46.2484 O.3     1  ZINC000369046711   -0.3700
      6 C6          2.0651    0.9226   46.5785 C.2     1  ZINC000369046711    0.6500
      7 O7          1.3729   -0.0755   46.5434 O.2     1  ZINC000369046711   -0.5700
      8 N8          1.5284    2.1023   46.9477 N.am    1  ZINC000369046711   -0.7100
      9 C9          0.1106    2.1811   47.3086 C.3     1  ZINC000369046711    0.1800
     10 H10        -0.4656    1.5614   46.6216 H       1  ZINC000369046711    0.0900
     11 C11        -0.3557    3.6310   47.1827 C.3     1  ZINC000369046711   -0.1300
     12 C12         0.4574    4.4802   48.1667 C.3     1  ZINC000369046711   -0.1200
     13 C13         0.1289    4.0221   49.5847 C.3     1  ZINC000369046711   -0.1200
     14 C14         0.5356    2.5626   49.7986 C.3     1  ZINC000369046711   -0.1000
     15 H15         1.6158    2.4477   49.8884 H       1  ZINC000369046711    0.0900
     16 C16        -0.2173    2.0782   51.0679 C.3     1  ZINC000369046711    0.0400
     17 N17        -1.4922    1.4899   50.6131 N.3     1  ZINC000369046711   -0.5200
     18 C18        -2.6374    2.1824   51.2190 C.3     1  ZINC000369046711    0.1200
     19 C19        -3.8664    1.3184   51.1015 C.2     1  ZINC000369046711    0.2900
     20 N20        -3.9442    0.1747   50.4710 N.2     1  ZINC000369046711   -0.5400
     21 C21        -5.1800   -0.3133   50.5707 C.2     1  ZINC000369046711    0.2000
     22 N22        -5.9090    0.5168   51.2692 N.2     1  ZINC000369046711   -0.3200
     23 N23        -5.0728    1.5855   51.6312 N.pl3   1  ZINC000369046711   -0.3700
     24 C24        -5.4439    2.7622   52.4209 C.3     1  ZINC000369046711    0.1000
     25 C25        -5.6491    3.9580   51.4888 C.3     1  ZINC000369046711    0.0500
     26 F26        -6.5008    3.5917   50.4410 F       1  ZINC000369046711   -0.2000
     27 C27        -1.5465    1.5674   49.1338 C.3     1  ZINC000369046711    0.0500
     28 C28        -0.0693    1.6583   48.7110 C.3     1  ZINC000369046711   -0.1000
     29 H29         0.3838    0.6691   48.7763 H       1  ZINC000369046711    0.0900
     30 H30         5.8259    0.8377   45.1828 H       1  ZINC000369046711    0.0900
     31 H31         4.8989   -0.5424   44.5471 H       1  ZINC000369046711    0.0600
     32 H32         5.3023    0.8251   43.4817 H       1  ZINC000369046711    0.0700
     33 H33         4.1851    3.0358   43.8092 H       1  ZINC000369046711    0.0700
     34 H34         2.9858    3.2432   45.1079 H       1  ZINC000369046711    0.0600
     35 H35         4.7087    3.0484   45.5103 H       1  ZINC000369046711    0.0900
     36 H36         2.4805   -0.2691   43.9823 H       1  ZINC000369046711    0.0700
     37 H37         1.6846    1.3059   44.2157 H       1  ZINC000369046711    0.0700
     38 H38         2.8840    1.0986   42.9169 H       1  ZINC000369046711    0.0800
     39 H39         2.0806    2.8993   46.9746 H       1  ZINC000369046711    0.4000
     40 H40        -0.1881    3.9846   46.1654 H       1  ZINC000369046711    0.0700
     41 H41        -1.4160    3.6991   47.4265 H       1  ZINC000369046711    0.0800
     42 H42         1.5220    4.3457   47.9749 H       1  ZINC000369046711    0.0600
     43 H43         0.1930    5.5312   48.0500 H       1  ZINC000369046711    0.0700
     44 H44         0.6637    4.6506   50.2967 H       1  ZINC000369046711    0.0700
     45 H45        -0.9431    4.1232   49.7540 H       1  ZINC000369046711    0.0600
     46 H46         0.3755    1.3255   51.5878 H       1  ZINC000369046711    0.0800
     47 H47        -0.4118    2.9219   51.7301 H       1  ZINC000369046711    0.0800
     48 H48        -2.4292    2.3769   52.2711 H       1  ZINC000369046711    0.0800
     49 H49        -2.8062    3.1266   50.7014 H       1  ZINC000369046711    0.1000
     50 H50        -5.5238   -1.2436   50.1432 H       1  ZINC000369046711    0.2200
     51 H51        -6.3685    2.5601   52.9617 H       1  ZINC000369046711    0.1200
     52 H52        -4.6491    2.9880   53.1319 H       1  ZINC000369046711    0.1100
     53 H53        -6.0936    4.7818   52.0471 H       1  ZINC000369046711    0.0900
     54 H54        -4.6874    4.2713   51.0826 H       1  ZINC000369046711    0.0800
     55 H55        -2.0088    0.6707   48.7210 H       1  ZINC000369046711    0.0900
     56 H56        -2.0891    2.4583   48.8176 H       1  ZINC000369046711    0.0600
@<TRIPOS>BOND
     1     1     2    1
     2     1    30    1
     3     1    31    1
     4     1    32    1
     5     2     3    1
     6     2     4    1
     7     2     5    1
     8     3    33    1
     9     3    34    1
    10     3    35    1
    11     4    36    1
    12     4    37    1
    13     4    38    1
    14     5     6    1
    15     6     7    2
    16     6     8   am
    17     8     9    1
    18     8    39    1
    19     9    10    1
    20     9    28    1
    21     9    11    1
    22    11    12    1
    23    11    40    1
    24    11    41    1
    25    12    13    1
    26    12    42    1
    27    12    43    1
    28    13    14    1
    29    13    44    1
    30    13    45    1
    31    14    15    1
    32    14    28    1
    33    14    16    1
    34    16    17    1
    35    16    46    1
    36    16    47    1
    37    17    18    1
    38    17    27    1
    39    18    19    1
    40    18    48    1
    41    18    49    1
    42    19    23    1
    43    19    20    2
    44    20    21    1
    45    21    22    2
    46    21    50    1
    47    22    23    1
    48    23    24    1
    49    24    25    1
    50    24    51    1
    51    24    52    1
    52    25    26    1
    53    25    53    1
    54    25    54    1
    55    27    28    1
    56    27    55    1
    57    27    56    1
    58    28    29    1
@<TRIPOS>SUBSTRUCTURE
     1 ZINC000369046711        1 TEMP              0 ****  ****    0 ROOT


##########                                Name:    ZINC001067316277
##########                DOCK_Rotatable_Bonds:                   5
##########                         Heavy_Atoms:                  24
##########                    Molecular_Weight:             345.469
##########                DOCK_Rotatable_Bonds:                   5
##########                       Formal_Charge:          -0.0200007
##########                     HBond_Acceptors:                   7
##########                        HBond_Donors:                   2
##########                         Heavy_Atoms:                  24
##########                          Grid_Score:          -31.557022
##########                     Grid_vdw_energy:          -30.336889
##########                      Grid_es_energy:           -1.220134
##########           Internal_energy_repulsive:           10.916870

@<TRIPOS>MOLECULE
ZINC001067316277
 47 49 1 0 0
SMALL
USER_CHARGES


@<TRIPOS>ATOM
      1 C1         -1.5083    4.2970   53.3857 C.3     1  ZINC001067316277   -0.1400
      2 S2         -0.2253    3.6145   52.3067 S.3     1  ZINC001067316277   -0.0400
      3 C3         -1.2060    2.5537   51.2982 C.ar    1  ZINC001067316277    0.1800
      4 C4         -0.6024    1.5899   50.4866 C.ar    1  ZINC001067316277   -0.2400
      5 C5         -1.4106    0.7805   49.7128 C.ar    1  ZINC001067316277    0.1900
      6 N6         -2.7252    0.9399   49.7619 N.ar    1  ZINC001067316277   -0.5600
      7 C7         -3.2712    1.8622   50.5411 C.ar    1  ZINC001067316277    0.5100
      8 N8         -4.6484    1.9969   50.5641 N.3     1  ZINC001067316277   -0.4600
      9 C9         -5.2941    0.7357   50.9500 C.3     1  ZINC001067316277    0.0700
     10 C10        -6.8125    0.8792   50.8242 C.3     1  ZINC001067316277   -0.1300
     11 C11        -7.2897    2.0169   51.7311 C.3     1  ZINC001067316277    0.1600
     12 H12        -7.0648    1.7736   52.7695 H       1  ZINC001067316277    0.0900
     13 N13        -8.7350    2.1963   51.5722 N.am    1  ZINC001067316277   -0.7200
     14 C14        -9.5864    1.2716   52.0586 C.2     1  ZINC001067316277    0.5900
     15 O15        -9.1545    0.2870   52.6287 O.2     1  ZINC001067316277   -0.5300
     16 C16       -11.0334    1.4521   51.9011 C.2     1  ZINC001067316277   -0.0600
     17 C17       -12.0155    0.5984   52.3565 C.2     1  ZINC001067316277   -0.1000
     18 C18       -13.2453    1.1547   51.9912 C.2     1  ZINC001067316277   -0.2100
     19 C19       -12.9985    2.3128   51.3335 C.2     1  ZINC001067316277    0.0300
     20 N20       -11.6584    2.5078   51.2769 N.pl3   1  ZINC001067316277   -0.5400
     21 C21        -6.5663    3.3085   51.3398 C.3     1  ZINC001067316277   -0.0700
     22 C22        -6.9255    3.6789   49.8995 C.3     1  ZINC001067316277   -0.1400
     23 C23        -6.9935    4.4379   52.2795 C.3     1  ZINC001067316277   -0.1400
     24 C24        -5.0551    3.0946   51.4507 C.3     1  ZINC001067316277    0.0800
     25 N25        -2.5323    2.6547   51.3024 N.ar    1  ZINC001067316277   -0.5400
     26 H26        -2.2499    4.8204   52.7822 H       1  ZINC001067316277    0.0900
     27 H27        -1.9913    3.4874   53.9330 H       1  ZINC001067316277    0.0900
     28 H28        -1.0567    4.9940   54.0916 H       1  ZINC001067316277    0.1000
     29 H29         0.4718    1.4807   50.4644 H       1  ZINC001067316277    0.1500
     30 H30        -0.9759    0.0259   49.0742 H       1  ZINC001067316277    0.1700
     31 H31        -4.9494   -0.0642   50.2947 H       1  ZINC001067316277    0.1000
     32 H32        -5.0361    0.4965   51.9816 H       1  ZINC001067316277    0.0500
     33 H33        -7.0723    1.1048   49.7899 H       1  ZINC001067316277    0.0800
     34 H34        -7.2922   -0.0521   51.1256 H       1  ZINC001067316277    0.0800
     35 H35        -9.0792    2.9806   51.1167 H       1  ZINC001067316277    0.3900
     36 H36       -11.8636   -0.3260   52.8939 H       1  ZINC001067316277    0.1500
     37 H37       -14.2191    0.7353   52.1966 H       1  ZINC001067316277    0.1500
     38 H38       -13.7474    2.9748   50.9244 H       1  ZINC001067316277    0.1700
     39 H39       -11.2136    3.2627   50.8606 H       1  ZINC001067316277    0.4100
     40 H40        -8.0024    3.8276   49.8203 H       1  ZINC001067316277    0.0500
     41 H41        -6.4104    4.5983   49.6215 H       1  ZINC001067316277    0.0600
     42 H42        -6.6198    2.8746   49.2304 H       1  ZINC001067316277    0.0700
     43 H43        -6.7361    4.1740   53.3052 H       1  ZINC001067316277    0.0600
     44 H44        -6.4783    5.3570   52.0004 H       1  ZINC001067316277    0.0600
     45 H45        -8.0705    4.5872   52.2020 H       1  ZINC001067316277    0.0600
     46 H46        -4.7982    2.8443   52.4800 H       1  ZINC001067316277    0.0600
     47 H47        -4.5367    4.0081   51.1591 H       1  ZINC001067316277    0.1000
@<TRIPOS>BOND
     1     1     2    1
     2     1    26    1
     3     1    27    1
     4     1    28    1
     5     2     3    1
     6     3    25   ar
     7     3     4   ar
     8     4     5   ar
     9     4    29    1
    10     5     6   ar
    11     5    30    1
    12     6     7   ar
    13     7     8    1
    14     7    25   ar
    15     8    24    1
    16     8     9    1
    17     9    10    1
    18     9    31    1
    19     9    32    1
    20    10    11    1
    21    10    33    1
    22    10    34    1
    23    11    12    1
    24    11    13    1
    25    11    21    1
    26    13    14   am
    27    13    35    1
    28    14    15    2
    29    14    16    1
    30    16    20    1
    31    16    17    2
    32    17    18    1
    33    17    36    1
    34    18    19    2
    35    18    37    1
    36    19    20    1
    37    19    38    1
    38    20    39    1
    39    21    22    1
    40    21    23    1
    41    21    24    1
    42    22    40    1
    43    22    41    1
    44    22    42    1
    45    23    43    1
    46    23    44    1
    47    23    45    1
    48    24    46    1
    49    24    47    1
@<TRIPOS>SUBSTRUCTURE
     1 ZINC001067316277        1 TEMP              0 ****  ****    0 ROOT


##########                                Name:    ZINC000545381384
##########                DOCK_Rotatable_Bonds:                   6
##########                         Heavy_Atoms:                  30
##########                    Molecular_Weight:             405.543
##########                DOCK_Rotatable_Bonds:                   6
##########                       Formal_Charge:                0.05
##########                     HBond_Acceptors:                   6
##########                        HBond_Donors:                   1
##########                         Heavy_Atoms:                  30
##########                          Grid_Score:          -31.551897
##########                     Grid_vdw_energy:          -30.268045
##########                      Grid_es_energy:           -1.283851
##########           Internal_energy_repulsive:           16.048967

@<TRIPOS>MOLECULE
ZINC000545381384
 61 64 1 0 0
SMALL
USER_CHARGES


@<TRIPOS>ATOM
      1 C1         -0.3962    6.8036   54.5445 C.3     1  ZINC000545381384   -0.2000
      2 C2         -0.8801    5.6586   55.4365 C.3     1  ZINC000545381384    0.0500
      3 N3         -2.2414    5.2723   55.0420 N.3     1  ZINC000545381384   -0.5300
      4 C4         -2.9745    4.6906   56.1774 C.3     1  ZINC000545381384    0.0500
      5 C5         -4.4628    4.6588   55.8311 C.3     1  ZINC000545381384   -0.0700
      6 C6         -4.6644    4.0086   54.4834 C.ar    1  ZINC000545381384    0.1800
      7 C7         -3.6083    3.8612   53.5918 C.ar    1  ZINC000545381384   -0.0800
      8 C8         -2.2154    4.3297   53.9190 C.3     1  ZINC000545381384    0.0900
      9 C9         -3.8294    3.2611   52.3547 C.ar    1  ZINC000545381384   -0.0700
     10 C10        -2.7272    3.0932   51.3837 C.2     1  ZINC000545381384    0.5800
     11 O11        -2.4080    4.0169   50.6609 O.2     1  ZINC000545381384   -0.4800
     12 N12        -2.0764    1.9159   51.3001 N.am    1  ZINC000545381384   -0.6400
     13 C13        -1.0365    1.7581   50.3861 C.2     1  ZINC000545381384    0.3000
     14 C14        -1.1121    1.1292   49.1808 C.2     1  ZINC000545381384   -0.2700
     15 C15         0.1490    1.1958   48.5829 C.2     1  ZINC000545381384    0.1000
     16 C16         0.5172    0.6261   47.2373 C.3     1  ZINC000545381384   -0.0300
     17 C17         0.2787    1.6805   46.1545 C.3     1  ZINC000545381384   -0.0600
     18 C18         1.2126    2.8700   46.3864 C.3     1  ZINC000545381384   -0.1500
     19 C19         0.5598    1.0719   44.7792 C.3     1  ZINC000545381384   -0.1400
     20 C20        -1.1750    2.1540   46.2151 C.3     1  ZINC000545381384   -0.1400
     21 N21         0.9559    1.8369   49.3889 N.2     1  ZINC000545381384   -0.2700
     22 N22         0.2364    2.2086   50.5319 N.pl3   1  ZINC000545381384   -0.3900
     23 C23         0.7651    2.9444   51.6831 C.3     1  ZINC000545381384    0.1000
     24 C24        -5.1395    2.8156   52.0529 C.ar    1  ZINC000545381384   -0.0700
     25 C25        -5.4423    2.2013   50.8311 C.ar    1  ZINC000545381384   -0.1100
     26 C26        -6.7163    1.7864   50.5830 C.ar    1  ZINC000545381384   -0.1000
     27 C27        -7.7228    1.9659   51.5298 C.ar    1  ZINC000545381384   -0.1000
     28 C28        -7.4635    2.5598   52.7262 C.ar    1  ZINC000545381384   -0.0900
     29 C29        -6.1596    3.0010   53.0186 C.ar    1  ZINC000545381384    0.1400
     30 N30        -5.8749    3.5865   54.1812 N.ar    1  ZINC000545381384   -0.4600
     31 H31        -0.4264    6.4892   53.5012 H       1  ZINC000545381384    0.0600
     32 H32        -1.0435    7.6697   54.6818 H       1  ZINC000545381384    0.0600
     33 H33         0.6263    7.0676   54.8148 H       1  ZINC000545381384    0.0700
     34 H34        -0.2130    4.8038   55.3244 H       1  ZINC000545381384    0.0900
     35 H35        -0.8819    5.9842   56.4767 H       1  ZINC000545381384    0.0800
     36 H36        -2.6197    3.6763   56.3611 H       1  ZINC000545381384    0.0500
     37 H37        -2.8184    5.3023   57.0659 H       1  ZINC000545381384    0.0900
     38 H38        -4.9990    4.0904   56.5910 H       1  ZINC000545381384    0.1000
     39 H39        -4.8496    5.6775   55.8031 H       1  ZINC000545381384    0.1000
     40 H40        -1.7864    4.8213   53.0458 H       1  ZINC000545381384    0.0900
     41 H41        -1.5993    3.4703   54.1838 H       1  ZINC000545381384    0.0700
     42 H42        -2.3319    1.1784   51.8760 H       1  ZINC000545381384    0.4100
     43 H43        -1.9906    0.6615   48.7616 H       1  ZINC000545381384    0.1700
     44 H44         1.5688    0.3393   47.2396 H       1  ZINC000545381384    0.0800
     45 H45        -0.0980   -0.2501   47.0329 H       1  ZINC000545381384    0.0800
     46 H46         2.2482    2.5327   46.3432 H       1  ZINC000545381384    0.0500
     47 H47         1.0427    3.6211   45.6149 H       1  ZINC000545381384    0.0500
     48 H48         1.0123    3.3037   47.3661 H       1  ZINC000545381384    0.0800
     49 H49        -0.1055    0.2245   44.6140 H       1  ZINC000545381384    0.0600
     50 H50         0.3899    1.8230   44.0078 H       1  ZINC000545381384    0.0600
     51 H51         1.5954    0.7345   44.7360 H       1  ZINC000545381384    0.0600
     52 H52        -1.3752    2.5876   47.1950 H       1  ZINC000545381384    0.0500
     53 H53        -1.3449    2.9051   45.4438 H       1  ZINC000545381384    0.0500
     54 H54        -1.8403    1.3065   46.0500 H       1  ZINC000545381384    0.0500
     55 H55         0.6405    4.0147   51.5186 H       1  ZINC000545381384    0.0800
     56 H56         0.2241    2.6497   52.5823 H       1  ZINC000545381384    0.0800
     57 H57         1.8239    2.7163   51.8050 H       1  ZINC000545381384    0.1000
     58 H58        -4.6704    2.0576   50.0895 H       1  ZINC000545381384    0.1300
     59 H59        -6.9490    1.3128   49.6407 H       1  ZINC000545381384    0.1300
     60 H60        -8.7250    1.6284   51.3104 H       1  ZINC000545381384    0.1400
     61 H61        -8.2553    2.6921   53.4485 H       1  ZINC000545381384    0.1400
@<TRIPOS>BOND
     1     1     2    1
     2     1    31    1
     3     1    32    1
     4     1    33    1
     5     2     3    1
     6     2    34    1
     7     2    35    1
     8     3     8    1
     9     3     4    1
    10     4     5    1
    11     4    36    1
    12     4    37    1
    13     5     6    1
    14     5    38    1
    15     5    39    1
    16     6    30   ar
    17     6     7   ar
    18     7     8    1
    19     7     9   ar
    20     8    40    1
    21     8    41    1
    22     9    10    1
    23     9    24   ar
    24    10    11    2
    25    10    12   am
    26    12    13    1
    27    12    42    1
    28    13    22    1
    29    13    14    2
    30    14    15    1
    31    14    43    1
    32    15    16    1
    33    15    21    2
    34    16    17    1
    35    16    44    1
    36    16    45    1
    37    17    18    1
    38    17    19    1
    39    17    20    1
    40    18    46    1
    41    18    47    1
    42    18    48    1
    43    19    49    1
    44    19    50    1
    45    19    51    1
    46    20    52    1
    47    20    53    1
    48    20    54    1
    49    21    22    1
    50    22    23    1
    51    23    55    1
    52    23    56    1
    53    23    57    1
    54    24    29   ar
    55    24    25   ar
    56    25    26   ar
    57    25    58    1
    58    26    27   ar
    59    26    59    1
    60    27    28   ar
    61    27    60    1
    62    28    29   ar
    63    28    61    1
    64    29    30   ar
@<TRIPOS>SUBSTRUCTURE
     1 ZINC000545381384        1 TEMP              0 ****  ****    0 ROOT


##########                                Name:    ZINC000470948647
##########                DOCK_Rotatable_Bonds:                   6
##########                         Heavy_Atoms:                  29
##########                    Molecular_Weight:             412.556
##########                DOCK_Rotatable_Bonds:                   6
##########                       Formal_Charge:           0.0100001
##########                     HBond_Acceptors:                   7
##########                        HBond_Donors:                   1
##########                         Heavy_Atoms:                  29
##########                          Grid_Score:          -31.539415
##########                     Grid_vdw_energy:          -30.989328
##########                      Grid_es_energy:           -0.550087
##########           Internal_energy_repulsive:           18.860712

@<TRIPOS>MOLECULE
ZINC000470948647
 57 60 1 0 0
SMALL
USER_CHARGES


@<TRIPOS>ATOM
      1 C1         -6.6622    0.7552   50.3593 C.3     1  ZINC000470948647   -0.1100
      2 C2         -5.2627    1.2389   50.6394 C.ar    1  ZINC000470948647   -0.1000
      3 C3         -4.1778    0.5054   50.1962 C.ar    1  ZINC000470948647   -0.1100
      4 C4         -2.8937    0.9461   50.4514 C.ar    1  ZINC000470948647   -0.1100
      5 C5         -2.6932    2.1271   51.1533 C.ar    1  ZINC000470948647    0.1400
      6 N6         -1.3938    2.5765   51.4130 N.am    1  ZINC000470948647   -0.6700
      7 C7         -0.8018    3.4485   50.5730 C.2     1  ZINC000470948647    0.5100
      8 O8         -1.3955    3.8438   49.5919 O.2     1  ZINC000470948647   -0.4800
      9 C9          0.5977    3.9325   50.8526 C.3     1  ZINC000470948647    0.1200
     10 H10         0.9501    4.4996   49.9911 H       1  ZINC000470948647    0.1200
     11 C11         0.5636    4.8675   52.0829 C.3     1  ZINC000470948647   -0.0700
     12 S12         1.0711    3.7151   53.4273 S.3     1  ZINC000470948647   -0.2500
     13 C13         2.1654    2.7190   52.3326 C.3     1  ZINC000470948647    0.1600
     14 N14         1.4635    2.7780   51.0387 N.am    1  ZINC000470948647   -0.6000
     15 C15         1.6137    1.8314   50.0911 C.2     1  ZINC000470948647    0.6300
     16 O16         2.3495    0.8841   50.2896 O.2     1  ZINC000470948647   -0.5100
     17 C17         0.8844    1.9446   48.8117 C.2     1  ZINC000470948647   -0.0100
     18 N18         0.9781    2.9288   47.9399 N.2     1  ZINC000470948647   -0.2700
     19 N19         0.2046    2.7061   46.9387 N.pl3   1  ZINC000470948647   -0.2700
     20 C20         0.0555    3.5923   45.7817 C.3     1  ZINC000470948647    0.1500
     21 C21         1.0237    4.7697   45.9129 C.3     1  ZINC000470948647   -0.1300
     22 C22         0.8680    5.6952   44.7045 C.3     1  ZINC000470948647   -0.1200
     23 C23         1.1799    4.9186   43.4237 C.3     1  ZINC000470948647   -0.1300
     24 C24         0.2117    3.7412   43.2925 C.3     1  ZINC000470948647   -0.1200
     25 C25         0.3674    2.8157   44.5008 C.3     1  ZINC000470948647   -0.1300
     26 C26        -0.4510    1.5375   47.1060 C.2     1  ZINC000470948647   -0.0100
     27 C27        -0.0429    1.0142   48.2858 C.2     1  ZINC000470948647   -0.1700
     28 C28        -3.7853    2.8619   51.5968 C.ar    1  ZINC000470948647   -0.1100
     29 C29        -3.5722    4.1446   52.3586 C.3     1  ZINC000470948647   -0.1100
     30 C30        -5.0664    2.4185   51.3342 C.ar    1  ZINC000470948647   -0.1000
     31 H31        -7.0029    1.1607   49.4065 H       1  ZINC000470948647    0.0700
     32 H32        -6.6680   -0.3338   50.3136 H       1  ZINC000470948647    0.0700
     33 H33        -7.3281    1.0890   51.1551 H       1  ZINC000470948647    0.0700
     34 H34        -4.3343   -0.4131   49.6503 H       1  ZINC000470948647    0.1200
     35 H35        -2.0465    0.3723   50.1055 H       1  ZINC000470948647    0.1400
     36 H36        -0.9189    2.2604   52.1976 H       1  ZINC000470948647    0.4100
     37 H37         1.2791    5.6827   51.9750 H       1  ZINC000470948647    0.1200
     38 H38        -0.4418    5.2515   52.2551 H       1  ZINC000470948647    0.1200
     39 H39         3.1541    3.1719   52.2587 H       1  ZINC000470948647    0.1000
     40 H40         2.2355    1.6909   52.6879 H       1  ZINC000470948647    0.1400
     41 H41        -0.9675    3.9661   45.7398 H       1  ZINC000470948647    0.1100
     42 H42         0.8015    5.3229   46.8254 H       1  ZINC000470948647    0.0800
     43 H43         2.0468    4.3958   45.9547 H       1  ZINC000470948647    0.0800
     44 H44        -0.1550    6.0690   44.6627 H       1  ZINC000470948647    0.0700
     45 H45         1.5578    6.5339   44.7980 H       1  ZINC000470948647    0.0800
     46 H46         1.0690    5.5779   42.5629 H       1  ZINC000470948647    0.0700
     47 H47         2.2030    4.5447   43.4656 H       1  ZINC000470948647    0.0700
     48 H48        -0.8113    4.1150   43.2507 H       1  ZINC000470948647    0.0700
     49 H49         0.4340    3.1880   42.3801 H       1  ZINC000470948647    0.0700
     50 H50         1.3905    2.4418   44.5428 H       1  ZINC000470948647    0.0700
     51 H51        -0.3223    1.9769   44.4074 H       1  ZINC000470948647    0.0700
     52 H52        -1.1643    1.0997   46.4234 H       1  ZINC000470948647    0.1800
     53 H53        -0.3632    0.0856   48.7346 H       1  ZINC000470948647    0.1600
     54 H54        -3.5261    4.9792   51.6591 H       1  ZINC000470948647    0.0700
     55 H55        -4.3993    4.2970   53.0519 H       1  ZINC000470948647    0.0700
     56 H56        -2.6372    4.0853   52.9157 H       1  ZINC000470948647    0.0600
     57 H57        -5.9160    2.9895   51.6786 H       1  ZINC000470948647    0.1300
@<TRIPOS>BOND
     1     1     2    1
     2     1    31    1
     3     1    32    1
     4     1    33    1
     5     2    30   ar
     6     2     3   ar
     7     3     4   ar
     8     3    34    1
     9     4     5   ar
    10     4    35    1
    11     5     6    1
    12     5    28   ar
    13     6     7   am
    14     6    36    1
    15     7     8    2
    16     7     9    1
    17     9    10    1
    18     9    14    1
    19     9    11    1
    20    11    12    1
    21    11    37    1
    22    11    38    1
    23    12    13    1
    24    13    14    1
    25    13    39    1
    26    13    40    1
    27    14    15   am
    28    15    16    2
    29    15    17    1
    30    17    27    1
    31    17    18    2
    32    18    19    1
    33    19    20    1
    34    19    26    1
    35    20    25    1
    36    20    21    1
    37    20    41    1
    38    21    22    1
    39    21    42    1
    40    21    43    1
    41    22    23    1
    42    22    44    1
    43    22    45    1
    44    23    24    1
    45    23    46    1
    46    23    47    1
    47    24    25    1
    48    24    48    1
    49    24    49    1
    50    25    50    1
    51    25    51    1
    52    26    27    2
    53    26    52    1
    54    27    53    1
    55    28    29    1
    56    28    30   ar
    57    29    54    1
    58    29    55    1
    59    29    56    1
    60    30    57    1
@<TRIPOS>SUBSTRUCTURE
     1 ZINC000470948647        1 TEMP              0 ****  ****    0 ROOT


##########                                Name:    ZINC000074782190
##########                DOCK_Rotatable_Bonds:                   9
##########                         Heavy_Atoms:                  25
##########                    Molecular_Weight:             341.453
##########                DOCK_Rotatable_Bonds:                   9
##########                       Formal_Charge:          -0.0200006
##########                     HBond_Acceptors:                   5
##########                        HBond_Donors:                   1
##########                         Heavy_Atoms:                  25
##########                          Grid_Score:          -31.531321
##########                     Grid_vdw_energy:          -31.460289
##########                      Grid_es_energy:           -0.071032
##########           Internal_energy_repulsive:           23.380543

@<TRIPOS>MOLECULE
ZINC000074782190
 52 53 1 0 0
SMALL
USER_CHARGES


@<TRIPOS>ATOM
      1 C1         -4.9764    4.9800   52.4533 C.3     1  ZINC000074782190   -0.1100
      2 C2         -5.8494    4.7583   51.2450 C.ar    1  ZINC000074782190   -0.1200
      3 C3         -6.4847    5.8283   50.6457 C.ar    1  ZINC000074782190   -0.0800
      4 C4         -7.2863    5.6255   49.5372 C.ar    1  ZINC000074782190   -0.1500
      5 C5         -7.4535    4.3519   49.0260 C.ar    1  ZINC000074782190   -0.0900
      6 C6         -6.8197    3.2784   49.6216 C.ar    1  ZINC000074782190   -0.2100
      7 C7         -6.0110    3.4799   50.7303 C.ar    1  ZINC000074782190    0.1300
      8 O8         -5.3865    2.4256   51.3181 O.3     1  ZINC000074782190   -0.3000
      9 C9         -4.5825    1.5965   50.4766 C.3     1  ZINC000074782190    0.0700
     10 H10        -4.6143    1.9760   49.4553 H       1  ZINC000074782190    0.0800
     11 C11        -5.1217    0.1650   50.5057 C.3     1  ZINC000074782190   -0.1800
     12 C12        -3.1378    1.6077   50.9799 C.3     1  ZINC000074782190    0.1400
     13 N13        -2.2225    1.6455   49.8367 N.am    1  ZINC000074782190   -0.7500
     14 C14        -0.9796    2.1454   49.9847 C.2     1  ZINC000074782190    0.7100
     15 O15        -0.6180    2.5651   51.0670 O.2     1  ZINC000074782190   -0.5900
     16 N16        -0.1376    2.1802   48.9329 N.am    1  ZINC000074782190   -0.6200
     17 C17         1.2133    2.7236   49.0937 C.3     1  ZINC000074782190    0.1800
     18 C18         1.9843    1.8727   50.0696 C.ar    1  ZINC000074782190   -0.1600
     19 C19         2.1578    2.2899   51.3802 C.ar    1  ZINC000074782190   -0.0500
     20 C20         2.8739    1.4741   52.2432 C.ar    1  ZINC000074782190   -0.1800
     21 C21         3.3870    0.2808   51.7715 C.ar    1  ZINC000074782190    0.1000
     22 N22         3.2021   -0.0843   50.5178 N.ar    1  ZINC000074782190   -0.4900
     23 C23         2.5223    0.6634   49.6709 C.ar    1  ZINC000074782190    0.1100
     24 C24        -0.5733    1.6745   47.6287 C.3     1  ZINC000074782190    0.1300
     25 C25        -0.6619    2.8350   46.6355 C.3     1  ZINC000074782190   -0.1800
     26 C26         0.4348    0.6428   47.1190 C.3     1  ZINC000074782190   -0.1800
     27 H27        -3.9539    5.1776   52.1315 H       1  ZINC000074782190    0.0700
     28 H28        -5.3502    5.8328   53.0201 H       1  ZINC000074782190    0.0600
     29 H29        -4.9937    4.0900   53.0823 H       1  ZINC000074782190    0.0700
     30 H30        -6.3556    6.8241   51.0433 H       1  ZINC000074782190    0.1300
     31 H31        -7.7828    6.4633   49.0705 H       1  ZINC000074782190    0.1200
     32 H32        -8.0803    4.1961   48.1604 H       1  ZINC000074782190    0.1200
     33 H33        -6.9509    2.2837   49.2220 H       1  ZINC000074782190    0.1300
     34 H34        -5.0899   -0.2145   51.5270 H       1  ZINC000074782190    0.0700
     35 H35        -6.1510    0.1571   50.1469 H       1  ZINC000074782190    0.0700
     36 H36        -4.5084   -0.4674   49.8638 H       1  ZINC000074782190    0.0800
     37 H37        -2.9770    2.4873   51.6033 H       1  ZINC000074782190    0.0800
     38 H38        -2.9502    0.7079   51.5660 H       1  ZINC000074782190    0.0900
     39 H39        -2.5109    1.3106   48.9732 H       1  ZINC000074782190    0.4100
     40 H40         1.7223    2.7229   48.1299 H       1  ZINC000074782190    0.0900
     41 H41         1.1518    3.7443   49.4713 H       1  ZINC000074782190    0.1000
     42 H42         1.7455    3.2281   51.7209 H       1  ZINC000074782190    0.1400
     43 H43         3.0289    1.7679   53.2708 H       1  ZINC000074782190    0.1300
     44 H44         3.9461   -0.3599   52.4373 H       1  ZINC000074782190    0.1600
     45 H45         2.3916    0.3312   48.6516 H       1  ZINC000074782190    0.1500
     46 H46        -1.5527    1.2067   47.7292 H       1  ZINC000074782190    0.1000
     47 H47         0.3337    3.2451   46.4663 H       1  ZINC000074782190    0.0600
     48 H48        -1.0718    2.4751   45.6918 H       1  ZINC000074782190    0.0700
     49 H49        -1.3106    3.6114   47.0409 H       1  ZINC000074782190    0.0600
     50 H50         0.4140   -0.2353   47.7646 H       1  ZINC000074782190    0.0700
     51 H51         0.1742    0.3520   46.1014 H       1  ZINC000074782190    0.0700
     52 H52         1.4348    1.0767   47.1280 H       1  ZINC000074782190    0.0700
@<TRIPOS>BOND
     1     1     2    1
     2     1    27    1
     3     1    28    1
     4     1    29    1
     5     2     7   ar
     6     2     3   ar
     7     3     4   ar
     8     3    30    1
     9     4     5   ar
    10     4    31    1
    11     5     6   ar
    12     5    32    1
    13     6     7   ar
    14     6    33    1
    15     7     8    1
    16     8     9    1
    17     9    10    1
    18     9    11    1
    19     9    12    1
    20    11    34    1
    21    11    35    1
    22    11    36    1
    23    12    13    1
    24    12    37    1
    25    12    38    1
    26    13    14   am
    27    13    39    1
    28    14    15    2
    29    14    16   am
    30    16    17    1
    31    16    24    1
    32    17    18    1
    33    17    40    1
    34    17    41    1
    35    18    23   ar
    36    18    19   ar
    37    19    20   ar
    38    19    42    1
    39    20    21   ar
    40    20    43    1
    41    21    22   ar
    42    21    44    1
    43    22    23   ar
    44    23    45    1
    45    24    25    1
    46    24    26    1
    47    24    46    1
    48    25    47    1
    49    25    48    1
    50    25    49    1
    51    26    50    1
    52    26    51    1
    53    26    52    1
@<TRIPOS>SUBSTRUCTURE
     1 ZINC000074782190        1 TEMP              0 ****  ****    0 ROOT


##########                                Name:    ZINC001207290212
##########                DOCK_Rotatable_Bonds:                   8
##########                         Heavy_Atoms:                  23
##########                    Molecular_Weight:             344.435
##########                DOCK_Rotatable_Bonds:                   8
##########                       Formal_Charge:               -0.03
##########                     HBond_Acceptors:                   9
##########                        HBond_Donors:                   2
##########                         Heavy_Atoms:                  23
##########                          Grid_Score:          -31.527752
##########                     Grid_vdw_energy:          -30.725504
##########                      Grid_es_energy:           -0.802247
##########           Internal_energy_repulsive:            4.679884

@<TRIPOS>MOLECULE
ZINC001207290212
 47 48 1 0 0
SMALL
USER_CHARGES


@<TRIPOS>ATOM
      1 C1         -9.6348    2.9942   52.7724 C.3     1  ZINC001207290212   -0.1500
      2 C2         -8.2147    2.4938   53.0445 C.3     1  ZINC001207290212   -0.6300
      3 S3         -7.6295    1.5321   51.6222 S.o2    1  ZINC001207290212    2.6100
      4 O4         -8.3595    0.3185   51.5065 O.2     1  ZINC001207290212   -0.9500
      5 O5         -7.4296    2.3770   50.4972 O.2     1  ZINC001207290212   -0.9500
      6 N6         -6.1031    1.0515   52.0482 N.am    1  ZINC001207290212   -1.1100
      7 C7         -5.3066    0.2392   51.1253 C.3     1  ZINC001207290212    0.0900
      8 C8         -4.2647    1.1050   50.4650 C.2     1  ZINC001207290212    0.5100
      9 O9         -4.5238    1.6837   49.4311 O.2     1  ZINC001207290212   -0.5300
     10 N10        -3.0452    1.2361   51.0234 N.am    1  ZINC001207290212   -0.7200
     11 C11        -2.0329    2.0792   50.3825 C.3     1  ZINC001207290212    0.1400
     12 H12        -2.5108    2.8428   49.7688 H       1  ZINC001207290212    0.1000
     13 C13        -1.0864    1.2193   49.5245 C.3     1  ZINC001207290212    0.0200
     14 N14         0.2691    1.3611   50.0991 N.3     1  ZINC001207290212   -0.5100
     15 C15         1.2938    1.3188   49.0473 C.3     1  ZINC001207290212    0.1300
     16 C16         2.5852    0.7995   49.6248 C.2     1  ZINC001207290212    0.0000
     17 C17         3.7704    0.7462   48.9949 C.2     1  ZINC001207290212   -0.0700
     18 O18         4.6568    0.2182   49.8616 O.3     1  ZINC001207290212   -0.2000
     19 C19         4.0060   -0.0428   51.0032 C.2     1  ZINC001207290212    0.1900
     20 C20         4.6164   -0.6411   52.2444 C.3     1  ZINC001207290212   -0.0600
     21 N21         2.7602    0.3115   50.8656 N.2     1  ZINC001207290212   -0.4700
     22 C22         0.2775    2.6717   50.7981 C.3     1  ZINC001207290212    0.0400
     23 C23        -1.1284    2.7370   51.4498 C.3     1  ZINC001207290212   -0.1000
     24 H24        -1.1504    2.1656   52.3778 H       1  ZINC001207290212    0.0900
     25 C25        -1.5421    4.1886   51.7001 C.3     1  ZINC001207290212   -0.1400
     26 H26        -9.6337    3.6247   51.8832 H       1  ZINC001207290212    0.0700
     27 H27       -10.2958    2.1424   52.6130 H       1  ZINC001207290212    0.0700
     28 H28        -9.9865    3.5721   53.6271 H       1  ZINC001207290212    0.0800
     29 H29        -7.5537    3.3457   53.2040 H       1  ZINC001207290212    0.1300
     30 H30        -8.2158    1.8634   53.9338 H       1  ZINC001207290212    0.1300
     31 H31        -5.7364    1.3078   52.9090 H       1  ZINC001207290212    0.4300
     32 H32        -4.8161   -0.5624   51.6774 H       1  ZINC001207290212    0.1000
     33 H33        -5.9581   -0.1898   50.3639 H       1  ZINC001207290212    0.1100
     34 H34        -2.8376    0.7722   51.8497 H       1  ZINC001207290212    0.4100
     35 H35        -1.3977    0.1753   49.5609 H       1  ZINC001207290212    0.0800
     36 H36        -1.0921    1.5756   48.4944 H       1  ZINC001207290212    0.0500
     37 H37         0.9635    0.6594   48.2447 H       1  ZINC001207290212    0.0600
     38 H38         1.4501    2.3225   48.6518 H       1  ZINC001207290212    0.1000
     39 H39         3.9745    1.0660   47.9836 H       1  ZINC001207290212    0.2100
     40 H40         5.6759   -0.8316   52.0727 H       1  ZINC001207290212    0.0900
     41 H41         4.5025    0.0537   53.0765 H       1  ZINC001207290212    0.1000
     42 H42         4.1125   -1.5780   52.4818 H       1  ZINC001207290212    0.1000
     43 H43         1.0566    2.6963   51.5600 H       1  ZINC001207290212    0.0900
     44 H44         0.4084    3.4866   50.0861 H       1  ZINC001207290212    0.0500
     45 H45        -1.5427    4.7342   50.7565 H       1  ZINC001207290212    0.0600
     46 H46        -2.5419    4.2118   52.1339 H       1  ZINC001207290212    0.0600
     47 H47        -0.8366    4.6539   52.3885 H       1  ZINC001207290212    0.0600
@<TRIPOS>BOND
     1     1     2    1
     2     1    26    1
     3     1    27    1
     4     1    28    1
     5     2     3    1
     6     2    29    1
     7     2    30    1
     8     3     4    2
     9     3     5    2
    10     3     6   am
    11     6     7    1
    12     6    31    1
    13     7     8    1
    14     7    32    1
    15     7    33    1
    16     8     9    2
    17     8    10   am
    18    10    11    1
    19    10    34    1
    20    11    12    1
    21    11    23    1
    22    11    13    1
    23    13    14    1
    24    13    35    1
    25    13    36    1
    26    14    15    1
    27    14    22    1
    28    15    16    1
    29    15    37    1
    30    15    38    1
    31    16    21    1
    32    16    17    2
    33    17    18    1
    34    17    39    1
    35    18    19    1
    36    19    20    1
    37    19    21    2
    38    20    40    1
    39    20    41    1
    40    20    42    1
    41    22    23    1
    42    22    43    1
    43    22    44    1
    44    23    24    1
    45    23    25    1
    46    25    45    1
    47    25    46    1
    48    25    47    1
@<TRIPOS>SUBSTRUCTURE
     1 ZINC001207290212        1 TEMP              0 ****  ****    0 ROOT


##########                                Name:    ZINC000914736341
##########                DOCK_Rotatable_Bonds:                   7
##########                         Heavy_Atoms:                  27
##########                    Molecular_Weight:             384.905
##########                DOCK_Rotatable_Bonds:                   7
##########                       Formal_Charge:                0.02
##########                     HBond_Acceptors:                   5
##########                        HBond_Donors:                   1
##########                         Heavy_Atoms:                  27
##########                          Grid_Score:          -31.512280
##########                     Grid_vdw_energy:          -31.665201
##########                      Grid_es_energy:            0.152921
##########           Internal_energy_repulsive:           26.327808

@<TRIPOS>MOLECULE
ZINC000914736341
 52 54 1 0 0
SMALL
USER_CHARGES


@<TRIPOS>ATOM
      1 C1         -8.3596    0.6164   61.2104 C.3     1  ZINC000914736341   -0.1400
      2 C2         -8.9376    0.7990   59.8055 C.3     1  ZINC000914736341   -0.0300
      3 C3         -9.9673    1.9305   59.8208 C.3     1  ZINC000914736341   -0.1400
      4 C4         -7.8104    1.1483   58.8318 C.3     1  ZINC000914736341    0.1300
      5 N5         -8.3761    1.7735   57.6338 N.am    1  ZINC000914736341   -0.7200
      6 C6         -7.5608    2.2204   56.6580 C.2     1  ZINC000914736341    0.5300
      7 O7         -6.3588    2.1062   56.7723 O.2     1  ZINC000914736341   -0.5300
      8 C8         -8.1428    2.8620   55.4248 C.3     1  ZINC000914736341   -0.1200
      9 H9         -8.5766    3.8337   55.6608 H       1  ZINC000914736341    0.1200
     10 C10        -9.1879    1.9362   54.7601 C.3     1  ZINC000914736341   -0.1400
     11 C11        -8.9821    2.1495   53.2766 C.2     1  ZINC000914736341    0.5200
     12 O12        -9.7720    1.8313   52.4130 O.2     1  ZINC000914736341   -0.5200
     13 N13        -7.7968    2.7434   53.0550 N.am    1  ZINC000914736341   -0.6100
     14 C14        -7.2873    3.1023   51.7292 C.3     1  ZINC000914736341    0.1600
     15 C15        -5.8634    2.6278   51.5928 C.ar    1  ZINC000914736341   -0.1000
     16 C16        -4.8187    3.4856   51.8800 C.ar    1  ZINC000914736341   -0.0800
     17 C17        -3.5123    3.0505   51.7550 C.ar    1  ZINC000914736341   -0.1100
     18 C18        -3.2504    1.7577   51.3422 C.ar    1  ZINC000914736341   -0.1000
     19 C19        -4.2946    0.8988   51.0546 C.ar    1  ZINC000914736341   -0.1100
     20 C20        -5.6019    1.3316   51.1855 C.ar    1  ZINC000914736341   -0.0300
     21 Cl21       -6.9138    0.2534   50.8244 Cl      1  ZINC000914736341   -0.0600
     22 C22        -7.0786    2.9872   54.3121 C.3     1  ZINC000914736341    0.1000
     23 C23        -9.6029   -0.4798   59.3659 C.ar    1  ZINC000914736341   -0.0700
     24 C24        -9.3033   -1.0260   58.1320 C.ar    1  ZINC000914736341   -0.1200
     25 C25        -9.9136   -2.1990   57.7288 C.ar    1  ZINC000914736341   -0.1200
     26 C26       -10.8232   -2.8259   58.5599 C.ar    1  ZINC000914736341   -0.1200
     27 C27       -11.1220   -2.2802   59.7942 C.ar    1  ZINC000914736341   -0.1200
     28 C28       -10.5086   -1.1095   60.1991 C.ar    1  ZINC000914736341   -0.1100
     29 H29        -9.1626    0.3676   61.9042 H       1  ZINC000914736341    0.0600
     30 H30        -7.6260   -0.1897   61.1994 H       1  ZINC000914736341    0.0600
     31 H31        -7.8784    1.5413   61.5283 H       1  ZINC000914736341    0.0600
     32 H32        -9.4861    2.8554   60.1387 H       1  ZINC000914736341    0.0600
     33 H33       -10.3790    2.0607   58.8199 H       1  ZINC000914736341    0.0600
     34 H34       -10.7704    1.6817   60.5145 H       1  ZINC000914736341    0.0600
     35 H35        -7.1181    1.8407   59.3107 H       1  ZINC000914736341    0.0700
     36 H36        -7.2786    0.2393   58.5505 H       1  ZINC000914736341    0.0700
     37 H37        -9.3374    1.8660   57.5429 H       1  ZINC000914736341    0.4000
     38 H38        -8.9997    0.8959   55.0257 H       1  ZINC000914736341    0.1100
     39 H39       -10.1967    2.2288   55.0514 H       1  ZINC000914736341    0.1100
     40 H40        -7.9026    2.6299   50.9633 H       1  ZINC000914736341    0.1000
     41 H41        -7.3228    4.1848   51.6070 H       1  ZINC000914736341    0.1000
     42 H42        -5.0227    4.4961   52.2019 H       1  ZINC000914736341    0.1400
     43 H43        -2.6961    3.7212   51.9796 H       1  ZINC000914736341    0.1300
     44 H44        -2.2297    1.4185   51.2439 H       1  ZINC000914736341    0.1300
     45 H45        -4.0898   -0.1114   50.7320 H       1  ZINC000914736341    0.1400
     46 H46        -6.6474    3.9883   54.3121 H       1  ZINC000914736341    0.1000
     47 H47        -6.2980    2.2394   54.4517 H       1  ZINC000914736341    0.0900
     48 H48        -8.5927   -0.5362   57.4828 H       1  ZINC000914736341    0.1300
     49 H49        -9.6801   -2.6254   56.7645 H       1  ZINC000914736341    0.1200
     50 H50       -11.3005   -3.7421   58.2445 H       1  ZINC000914736341    0.1200
     51 H51       -11.8329   -2.7698   60.4432 H       1  ZINC000914736341    0.1200
     52 H52       -10.7421   -0.6831   61.1636 H       1  ZINC000914736341    0.1200
@<TRIPOS>BOND
     1     1     2    1
     2     1    29    1
     3     1    30    1
     4     1    31    1
     5     2     3    1
     6     2     4    1
     7     2    23    1
     8     3    32    1
     9     3    33    1
    10     3    34    1
    11     4     5    1
    12     4    35    1
    13     4    36    1
    14     5     6   am
    15     5    37    1
    16     6     7    2
    17     6     8    1
    18     8     9    1
    19     8    22    1
    20     8    10    1
    21    10    11    1
    22    10    38    1
    23    10    39    1
    24    11    12    2
    25    11    13   am
    26    13    14    1
    27    13    22    1
    28    14    15    1
    29    14    40    1
    30    14    41    1
    31    15    20   ar
    32    15    16   ar
    33    16    17   ar
    34    16    42    1
    35    17    18   ar
    36    17    43    1
    37    18    19   ar
    38    18    44    1
    39    19    20   ar
    40    19    45    1
    41    20    21    1
    42    22    46    1
    43    22    47    1
    44    23    28   ar
    45    23    24   ar
    46    24    25   ar
    47    24    48    1
    48    25    26   ar
    49    25    49    1
    50    26    27   ar
    51    26    50    1
    52    27    28   ar
    53    27    51    1
    54    28    52    1
@<TRIPOS>SUBSTRUCTURE
     1 ZINC000914736341        1 TEMP              0 ****  ****    0 ROOT


##########                                Name:    ZINC000432058199
##########                DOCK_Rotatable_Bonds:                   5
##########                         Heavy_Atoms:                  30
##########                    Molecular_Weight:             406.441
##########                DOCK_Rotatable_Bonds:                   5
##########                       Formal_Charge:        -4.02331e-07
##########                     HBond_Acceptors:                   8
##########                        HBond_Donors:                   1
##########                         Heavy_Atoms:                  30
##########                          Grid_Score:          -31.510326
##########                     Grid_vdw_energy:          -30.920454
##########                      Grid_es_energy:           -0.589873
##########           Internal_energy_repulsive:           25.433287

@<TRIPOS>MOLECULE
ZINC000432058199
 52 55 1 0 0
SMALL
USER_CHARGES


@<TRIPOS>ATOM
      1 C1        -10.2597    9.2337   49.4440 C.3     1  ZINC000432058199    0.0300
      2 O2         -9.5418    9.3343   48.2125 O.3     1  ZINC000432058199   -0.3100
      3 C3         -8.6390    8.3548   47.9429 C.ar    1  ZINC000432058199    0.1300
      4 C4         -7.9063    8.3917   46.7647 C.ar    1  ZINC000432058199   -0.1900
      5 C5         -6.9870    7.3974   46.4865 C.ar    1  ZINC000432058199   -0.0800
      6 C6         -6.7927    6.3624   47.3789 C.ar    1  ZINC000432058199   -0.1100
      7 C7         -7.5241    6.3183   48.5644 C.ar    1  ZINC000432058199    0.0100
      8 C8         -7.3167    5.2067   49.5259 C.2     1  ZINC000432058199    0.2100
      9 N9         -7.4253    5.2755   50.8271 N.2     1  ZINC000432058199   -0.3700
     10 O10        -7.1923    4.1933   51.3227 O.3     1  ZINC000432058199    0.1200
     11 C11        -6.9050    3.3044   50.3665 C.2     1  ZINC000432058199    0.1600
     12 C12        -6.5605    1.8514   50.5695 C.3     1  ZINC000432058199    0.2500
     13 H13        -6.8952    1.2748   49.7072 H       1  ZINC000432058199    0.1500
     14 C14        -7.2557    1.3337   51.8303 C.3     1  ZINC000432058199   -0.1700
     15 N15        -5.1099    1.7097   50.7186 N.am    1  ZINC000432058199   -0.5800
     16 C16        -4.4417    0.5682   50.5174 C.2     1  ZINC000432058199    0.7000
     17 O17        -4.9708   -0.4755   50.1889 O.2     1  ZINC000432058199   -0.5100
     18 N18        -3.1188    0.7048   50.7192 N.am    1  ZINC000432058199   -0.7200
     19 C19        -2.8934    2.1100   51.0997 C.3     1  ZINC000432058199    0.1400
     20 H20        -2.4662    2.1725   52.1005 H       1  ZINC000432058199    0.1400
     21 C21        -1.9975    2.7932   50.0989 C.ar    1  ZINC000432058199   -0.1000
     22 C22        -1.6662    4.1252   50.2640 C.ar    1  ZINC000432058199   -0.1000
     23 C23        -0.8445    4.7519   49.3460 C.ar    1  ZINC000432058199   -0.0800
     24 C24        -0.4837    6.2040   49.5257 C.3     1  ZINC000432058199   -0.1200
     25 C25        -0.3532    4.0466   48.2634 C.ar    1  ZINC000432058199   -0.1100
     26 C26        -0.6841    2.7145   48.0986 C.ar    1  ZINC000432058199   -0.0800
     27 C27        -0.1490    1.9457   46.9180 C.3     1  ZINC000432058199   -0.1200
     28 C28        -1.5024    2.0867   49.0188 C.ar    1  ZINC000432058199   -0.1000
     29 C29        -4.2832    2.7144   51.0698 C.2     1  ZINC000432058199    0.5300
     30 O30        -4.5884    3.8616   51.3161 O.2     1  ZINC000432058199   -0.4500
     31 N31        -6.9857    3.9320   49.2197 N.2     1  ZINC000432058199   -0.4500
     32 C32        -8.4461    7.3227   48.8467 C.ar    1  ZINC000432058199   -0.1200
     33 H33       -10.9454   10.0762   49.5348 H       1  ZINC000432058199    0.1000
     34 H34       -10.8251    8.3018   49.4599 H       1  ZINC000432058199    0.0600
     35 H35        -9.5564    9.2462   50.2767 H       1  ZINC000432058199    0.0600
     36 H36        -8.0551    9.1992   46.0631 H       1  ZINC000432058199    0.1400
     37 H37        -6.4195    7.4302   45.5681 H       1  ZINC000432058199    0.1400
     38 H38        -6.0743    5.5868   47.1584 H       1  ZINC000432058199    0.1400
     39 H39        -6.9209    1.9104   52.6926 H       1  ZINC000432058199    0.0900
     40 H40        -8.3349    1.4392   51.7195 H       1  ZINC000432058199    0.0900
     41 H41        -7.0065    0.2828   51.9770 H       1  ZINC000432058199    0.0900
     42 H42        -2.4446    0.0128   50.6318 H       1  ZINC000432058199    0.4500
     43 H43        -2.0497    4.6761   51.1101 H       1  ZINC000432058199    0.1200
     44 H44         0.4268    6.2814   50.1200 H       1  ZINC000432058199    0.0700
     45 H45        -0.3206    6.6613   48.5498 H       1  ZINC000432058199    0.0700
     46 H46        -1.2964    6.7197   50.0373 H       1  ZINC000432058199    0.0700
     47 H47         0.2888    4.5363   47.5462 H       1  ZINC000432058199    0.1300
     48 H48         0.8035    1.4876   47.1844 H       1  ZINC000432058199    0.0700
     49 H49        -0.8602    1.1687   46.6379 H       1  ZINC000432058199    0.0700
     50 H50        -0.0032    2.6248   46.0780 H       1  ZINC000432058199    0.0700
     51 H51        -1.7610    1.0460   48.8901 H       1  ZINC000432058199    0.1300
     52 H52        -9.0152    7.2929   49.7641 H       1  ZINC000432058199    0.1400
@<TRIPOS>BOND
     1     1     2    1
     2     1    33    1
     3     1    34    1
     4     1    35    1
     5     2     3    1
     6     3    32   ar
     7     3     4   ar
     8     4     5   ar
     9     4    36    1
    10     5     6   ar
    11     5    37    1
    12     6     7   ar
    13     6    38    1
    14     7     8    1
    15     7    32   ar
    16     8    31    1
    17     8     9    2
    18     9    10    1
    19    10    11    1
    20    11    12    1
    21    11    31    2
    22    12    13    1
    23    12    14    1
    24    12    15    1
    25    14    39    1
    26    14    40    1
    27    14    41    1
    28    15    29   am
    29    15    16   am
    30    16    17    2
    31    16    18   am
    32    18    19    1
    33    18    42    1
    34    19    20    1
    35    19    21    1
    36    19    29    1
    37    21    28   ar
    38    21    22   ar
    39    22    23   ar
    40    22    43    1
    41    23    24    1
    42    23    25   ar
    43    24    44    1
    44    24    45    1
    45    24    46    1
    46    25    26   ar
    47    25    47    1
    48    26    27    1
    49    26    28   ar
    50    27    48    1
    51    27    49    1
    52    27    50    1
    53    28    51    1
    54    29    30    2
    55    32    52    1
@<TRIPOS>SUBSTRUCTURE
     1 ZINC000432058199        1 TEMP              0 ****  ****    0 ROOT


##########                                Name:    ZINC000132775118
##########                DOCK_Rotatable_Bonds:                   5
##########                         Heavy_Atoms:                  27
##########                    Molecular_Weight:             376.499
##########                DOCK_Rotatable_Bonds:                   5
##########                       Formal_Charge:        -4.76837e-07
##########                     HBond_Acceptors:                   7
##########                        HBond_Donors:                   1
##########                         Heavy_Atoms:                  27
##########                          Grid_Score:          -31.480568
##########                     Grid_vdw_energy:          -31.302460
##########                      Grid_es_energy:           -0.178108
##########           Internal_energy_repulsive:           28.956930

@<TRIPOS>MOLECULE
ZINC000132775118
 59 62 1 0 0
SMALL
USER_CHARGES


@<TRIPOS>ATOM
      1 O1         -1.5613    3.8056   50.7821 O.2     1  ZINC000132775118   -0.5200
      2 C2         -2.3108    2.9055   50.4677 C.2     1  ZINC000132775118    0.5200
      3 C3         -1.9636    2.0055   49.3099 C.3     1  ZINC000132775118    0.0300
      4 N4         -0.5090    2.0105   49.1049 N.3     1  ZINC000132775118   -0.5100
      5 C5          0.1924    1.5061   50.2946 C.3     1  ZINC000132775118    0.0300
      6 C6          1.6525    1.3090   50.0046 C.2     1  ZINC000132775118    0.5300
      7 O7          2.4134    1.1755   50.9396 O.2     1  ZINC000132775118   -0.5500
      8 N8          2.1554    1.2729   48.7632 N.am    1  ZINC000132775118   -0.7200
      9 C9          1.3237    1.4920   47.5879 C.3     1  ZINC000132775118    0.1500
     10 H10         1.4203    2.5316   47.2747 H       1  ZINC000132775118    0.0800
     11 C11         1.7359    0.5853   46.4304 C.3     1  ZINC000132775118   -0.1300
     12 C12         0.8660    0.9110   45.2120 C.3     1  ZINC000132775118   -0.1200
     13 C13        -0.6090    0.6925   45.5499 C.3     1  ZINC000132775118   -0.1200
     14 C14        -1.0129    1.5808   46.7310 C.3     1  ZINC000132775118   -0.1200
     15 C15        -0.1407    1.2107   47.9311 C.3     1  ZINC000132775118    0.0700
     16 H16        -0.2770    0.1551   48.1658 H       1  ZINC000132775118    0.0600
     17 N17        -3.4515    2.7067   51.1574 N.am    1  ZINC000132775118   -0.6200
     18 C18        -3.8065    3.5795   52.2848 C.3     1  ZINC000132775118    0.1100
     19 C19        -5.2151    4.1355   52.0534 C.3     1  ZINC000132775118   -0.1200
     20 C20        -6.1864    2.9748   51.8270 C.3     1  ZINC000132775118   -0.1000
     21 C21        -7.5793    3.5164   51.6328 C.2     1  ZINC000132775118    0.5300
     22 O22        -7.7392    4.6623   51.2691 O.2     1  ZINC000132775118   -0.5300
     23 N23        -8.6473    2.7274   51.8633 N.am    1  ZINC000132775118   -0.6200
     24 C24       -10.0547    3.1234   51.7079 C.3     1  ZINC000132775118    0.1000
     25 C25       -10.9192    1.9087   52.1064 C.3     1  ZINC000132775118   -0.1300
     26 C26        -9.9624    1.0808   53.0043 C.3     1  ZINC000132775118   -0.1300
     27 C27        -8.5979    1.3223   52.3068 C.3     1  ZINC000132775118    0.1000
     28 C28        -5.7660    2.1910   50.5816 C.3     1  ZINC000132775118   -0.1200
     29 C29        -4.3666    1.6167   50.7924 C.3     1  ZINC000132775118    0.1200
     30 H30        -2.2967    0.9905   49.5262 H       1  ZINC000132775118    0.0700
     31 H31        -2.4589    2.3660   48.4082 H       1  ZINC000132775118    0.1200
     32 H32         0.0814    2.2232   51.1079 H       1  ZINC000132775118    0.1300
     33 H33        -0.2462    0.5542   50.5935 H       1  ZINC000132775118    0.0700
     34 H34         3.1017    1.0958   48.6436 H       1  ZINC000132775118    0.4000
     35 H35         2.7843    0.7577   46.1870 H       1  ZINC000132775118    0.0800
     36 H36         1.5917   -0.4572   46.7139 H       1  ZINC000132775118    0.0700
     37 H37         1.0209    1.9508   44.9241 H       1  ZINC000132775118    0.0700
     38 H38         1.1471    0.2618   44.3827 H       1  ZINC000132775118    0.0700
     39 H39        -1.2199    0.9437   44.6829 H       1  ZINC000132775118    0.0700
     40 H40        -0.7690   -0.3533   45.8124 H       1  ZINC000132775118    0.0600
     41 H41        -0.8640    2.6280   46.4679 H       1  ZINC000132775118    0.0800
     42 H42        -2.0612    1.4091   46.9752 H       1  ZINC000132775118    0.0700
     43 H43        -3.7878    3.0055   53.2112 H       1  ZINC000132775118    0.0800
     44 H44        -3.0946    4.4025   52.3479 H       1  ZINC000132775118    0.0900
     45 H45        -5.5285    4.7071   52.9269 H       1  ZINC000132775118    0.0800
     46 H46        -5.2111    4.7829   51.1765 H       1  ZINC000132775118    0.0800
     47 H47        -6.1713    2.3142   52.6939 H       1  ZINC000132775118    0.0900
     48 H48       -10.2768    3.9669   52.3617 H       1  ZINC000132775118    0.0700
     49 H49       -10.2513    3.3940   50.6706 H       1  ZINC000132775118    0.0700
     50 H50       -11.7965    2.2277   52.6690 H       1  ZINC000132775118    0.0800
     51 H51       -11.2115    1.3377   51.2251 H       1  ZINC000132775118    0.0800
     52 H52        -9.9561    1.4630   54.0251 H       1  ZINC000132775118    0.0800
     53 H53       -10.2266    0.0234   52.9862 H       1  ZINC000132775118    0.0900
     54 H54        -8.4843    0.6534   51.4538 H       1  ZINC000132775118    0.0700
     55 H55        -7.7802    1.1797   53.0134 H       1  ZINC000132775118    0.0800
     56 H56        -6.4716    1.3786   50.4076 H       1  ZINC000132775118    0.0800
     57 H57        -5.7569    2.8567   49.7186 H       1  ZINC000132775118    0.0800
     58 H58        -4.0239    1.1425   49.8728 H       1  ZINC000132775118    0.1000
     59 H59        -4.3905    0.8825   51.5977 H       1  ZINC000132775118    0.0700
@<TRIPOS>BOND
     1     1     2    2
     2     2     3    1
     3     2    17   am
     4     3     4    1
     5     3    30    1
     6     3    31    1
     7     4    15    1
     8     4     5    1
     9     5     6    1
    10     5    32    1
    11     5    33    1
    12     6     7    2
    13     6     8   am
    14     8     9    1
    15     8    34    1
    16     9    10    1
    17     9    15    1
    18     9    11    1
    19    11    12    1
    20    11    35    1
    21    11    36    1
    22    12    13    1
    23    12    37    1
    24    12    38    1
    25    13    14    1
    26    13    39    1
    27    13    40    1
    28    14    15    1
    29    14    41    1
    30    14    42    1
    31    15    16    1
    32    17    29    1
    33    17    18    1
    34    18    19    1
    35    18    43    1
    36    18    44    1
    37    19    20    1
    38    19    45    1
    39    19    46    1
    40    20    21    1
    41    20    28    1
    42    20    47    1
    43    21    22    2
    44    21    23   am
    45    23    27    1
    46    23    24    1
    47    24    25    1
    48    24    48    1
    49    24    49    1
    50    25    26    1
    51    25    50    1
    52    25    51    1
    53    26    27    1
    54    26    52    1
    55    26    53    1
    56    27    54    1
    57    27    55    1
    58    28    29    1
    59    28    56    1
    60    28    57    1
    61    29    58    1
    62    29    59    1
@<TRIPOS>SUBSTRUCTURE
     1 ZINC000132775118        1 TEMP              0 ****  ****    0 ROOT


##########                                Name:    ZINC000893400114
##########                DOCK_Rotatable_Bonds:                   6
##########                         Heavy_Atoms:                  27
##########                    Molecular_Weight:             381.472
##########                DOCK_Rotatable_Bonds:                   6
##########                       Formal_Charge:           0.0300001
##########                     HBond_Acceptors:                   8
##########                        HBond_Donors:                   1
##########                         Heavy_Atoms:                  27
##########                          Grid_Score:          -31.480118
##########                     Grid_vdw_energy:          -31.151104
##########                      Grid_es_energy:           -0.329013
##########           Internal_energy_repulsive:           85.060974

@<TRIPOS>MOLECULE
ZINC000893400114
 58 61 1 0 0
SMALL
USER_CHARGES


@<TRIPOS>ATOM
      1 O1         -1.1417    1.5122   50.9561 O.2     1  ZINC000893400114   -0.5600
      2 C2         -1.6783    1.5346   49.8652 C.2     1  ZINC000893400114    0.7100
      3 N3         -3.0224    1.4936   49.7744 N.am    1  ZINC000893400114   -0.7300
      4 C4         -3.8367    1.4161   50.9899 C.3     1  ZINC000893400114    0.1400
      5 H5         -3.1991    1.3666   51.8725 H       1  ZINC000893400114    0.1200
      6 C6         -4.7783    0.1908   50.9331 C.3     1  ZINC000893400114   -0.1400
      7 C7         -6.0696    0.8125   50.3563 C.3     1  ZINC000893400114    0.1000
      8 N8         -6.0171    2.2330   50.7212 N.am    1  ZINC000893400114   -0.6200
      9 C9         -7.1717    3.1347   50.7017 C.3     1  ZINC000893400114    0.1600
     10 C10        -7.3810    3.7295   52.0976 C.3     1  ZINC000893400114   -0.1700
     11 C11        -8.5394    4.7293   52.0493 C.3     1  ZINC000893400114    0.0700
     12 O12        -8.2524    5.7425   51.0833 O.3     1  ZINC000893400114   -0.3800
     13 C13        -8.0935    5.2504   49.7511 C.3     1  ZINC000893400114    0.0700
     14 C14        -6.9172    4.2715   49.7071 C.3     1  ZINC000893400114   -0.1700
     15 C15        -4.7713    2.6023   51.0776 C.2     1  ZINC000893400114    0.5100
     16 O16        -4.4489    3.7210   51.4176 O.2     1  ZINC000893400114   -0.4900
     17 N17        -0.9292    1.6060   48.7470 N.am    1  ZINC000893400114   -0.6300
     18 C18        -1.5562    1.6403   47.4162 C.3     1  ZINC000893400114    0.0800
     19 C19        -0.9640    2.8175   46.6330 C.3     1  ZINC000893400114    0.0500
     20 O20         0.4627    2.7312   46.6607 O.3     1  ZINC000893400114   -0.3800
     21 C21         1.0298    2.8290   47.9694 C.3     1  ZINC000893400114    0.0600
     22 C22         0.5394    1.6580   48.8212 C.3     1  ZINC000893400114    0.1400
     23 H23         0.9542    0.7259   48.4375 H       1  ZINC000893400114    0.0800
     24 C24         0.9782    1.8579   50.2733 C.3     1  ZINC000893400114   -0.1200
     25 C25         2.4822    2.1354   50.3181 C.3     1  ZINC000893400114    0.0700
     26 H26         2.7053    3.0522   49.7725 H       1  ZINC000893400114    0.0800
     27 C27         3.2519    0.9527   49.6917 C.3     1  ZINC000893400114   -0.1500
     28 C28         4.4867    0.8315   50.6256 C.3     1  ZINC000893400114   -0.1600
     29 C29         3.8655    1.2306   51.9879 C.3     1  ZINC000893400114    0.0500
     30 O30         2.9125    2.2624   51.6784 O.3     1  ZINC000893400114   -0.3800
     31 H31        -3.4507    1.5156   48.9043 H       1  ZINC000893400114    0.4000
     32 H32        -4.3823   -0.5749   50.2661 H       1  ZINC000893400114    0.1000
     33 H33        -4.9520   -0.2142   51.9300 H       1  ZINC000893400114    0.1000
     34 H34        -6.0896    0.7021   49.2721 H       1  ZINC000893400114    0.0700
     35 H35        -6.9462    0.3410   50.8004 H       1  ZINC000893400114    0.0800
     36 H36        -8.0617    2.5810   50.4025 H       1  ZINC000893400114    0.0900
     37 H37        -7.6175    2.9317   52.8017 H       1  ZINC000893400114    0.0800
     38 H38        -6.4722    4.2401   52.4160 H       1  ZINC000893400114    0.0900
     39 H39        -9.4562    4.2102   51.7700 H       1  ZINC000893400114    0.0500
     40 H40        -8.6652    5.1875   53.0303 H       1  ZINC000893400114    0.1000
     41 H41        -9.0045    4.7381   49.4419 H       1  ZINC000893400114    0.0500
     42 H42        -7.8982    6.0840   49.0766 H       1  ZINC000893400114    0.1000
     43 H43        -5.9990    4.7931   49.9773 H       1  ZINC000893400114    0.0900
     44 H44        -6.8220    3.8615   48.7017 H       1  ZINC000893400114    0.0700
     45 H45        -1.3507    0.7084   46.8895 H       1  ZINC000893400114    0.0800
     46 H46        -2.6329    1.7736   47.5210 H       1  ZINC000893400114    0.0800
     47 H47        -1.3111    2.7792   45.6005 H       1  ZINC000893400114    0.1100
     48 H48        -1.2809    3.7550   47.0899 H       1  ZINC000893400114    0.0500
     49 H49         2.1170    2.7990   47.8983 H       1  ZINC000893400114    0.1300
     50 H50         0.7201    3.7665   48.4312 H       1  ZINC000893400114    0.0500
     51 H51         0.4399    2.7030   50.7025 H       1  ZINC000893400114    0.0800
     52 H52         0.7576    0.9576   50.8468 H       1  ZINC000893400114    0.1100
     53 H53         2.6534    0.0421   49.7196 H       1  ZINC000893400114    0.0800
     54 H54         3.5582    1.1858   48.6719 H       1  ZINC000893400114    0.0800
     55 H55         4.8621   -0.1915   50.6498 H       1  ZINC000893400114    0.0800
     56 H56         5.2712    1.5291   50.3322 H       1  ZINC000893400114    0.0800
     57 H57         3.3643    0.3749   52.4403 H       1  ZINC000893400114    0.0600
     58 H58         4.6354    1.6160   52.6564 H       1  ZINC000893400114    0.0800
@<TRIPOS>BOND
     1     1     2    2
     2     2     3   am
     3     2    17   am
     4     3     4    1
     5     3    31    1
     6     4     5    1
     7     4    15    1
     8     4     6    1
     9     6     7    1
    10     6    32    1
    11     6    33    1
    12     7     8    1
    13     7    34    1
    14     7    35    1
    15     8     9    1
    16     8    15   am
    17     9    14    1
    18     9    10    1
    19     9    36    1
    20    10    11    1
    21    10    37    1
    22    10    38    1
    23    11    12    1
    24    11    39    1
    25    11    40    1
    26    12    13    1
    27    13    14    1
    28    13    41    1
    29    13    42    1
    30    14    43    1
    31    14    44    1
    32    15    16    2
    33    17    22    1
    34    17    18    1
    35    18    19    1
    36    18    45    1
    37    18    46    1
    38    19    20    1
    39    19    47    1
    40    19    48    1
    41    20    21    1
    42    21    22    1
    43    21    49    1
    44    21    50    1
    45    22    23    1
    46    22    24    1
    47    24    25    1
    48    24    51    1
    49    24    52    1
    50    25    26    1
    51    25    30    1
    52    25    27    1
    53    27    28    1
    54    27    53    1
    55    27    54    1
    56    28    29    1
    57    28    55    1
    58    28    56    1
    59    29    30    1
    60    29    57    1
    61    29    58    1
@<TRIPOS>SUBSTRUCTURE
     1 ZINC000893400114        1 TEMP              0 ****  ****    0 ROOT


##########                                Name:    ZINC000518242403
##########                DOCK_Rotatable_Bonds:                   6
##########                         Heavy_Atoms:                  27
##########                    Molecular_Weight:             370.405
##########                DOCK_Rotatable_Bonds:                   6
##########                       Formal_Charge:          -0.0200004
##########                     HBond_Acceptors:                   7
##########                        HBond_Donors:                   1
##########                         Heavy_Atoms:                  27
##########                          Grid_Score:          -31.447504
##########                     Grid_vdw_energy:          -32.260414
##########                      Grid_es_energy:            0.812910
##########           Internal_energy_repulsive:           21.945953

@<TRIPOS>MOLECULE
ZINC000518242403
 49 52 1 0 0
SMALL
USER_CHARGES


@<TRIPOS>ATOM
      1 C1          1.6746    2.8175   50.2930 C.3     1  ZINC000518242403   -0.1800
      2 C2          1.3010    1.3955   49.8696 C.3     1  ZINC000518242403    0.1000
      3 N3          0.2763    1.4507   48.8241 N.am    1  ZINC000518242403   -0.6200
      4 C4          0.6673    1.4189   47.4126 C.3     1  ZINC000518242403    0.1500
      5 C5          0.1332    2.6671   46.7072 C.3     1  ZINC000518242403    0.0300
      6 H6         -0.9563    2.6708   46.7416 H       1  ZINC000518242403    0.0900
      7 C7          0.6769    3.9247   47.3986 C.3     1  ZINC000518242403    0.0300
      8 O8          0.1701    5.0712   46.7068 O.3     1  ZINC000518242403   -0.3000
      9 C9          0.2419    5.0466   45.3479 C.ar    1  ZINC000518242403    0.0500
     10 C10         0.1164    6.2311   44.6380 C.ar    1  ZINC000518242403   -0.1100
     11 C11         0.1840    6.2215   43.2573 C.ar    1  ZINC000518242403   -0.1200
     12 C12         0.3770    5.0320   42.5807 C.ar    1  ZINC000518242403   -0.1200
     13 C13         0.5044    3.8477   43.2824 C.ar    1  ZINC000518242403   -0.1100
     14 C14         0.4387    3.8503   44.6675 C.ar    1  ZINC000518242403    0.0500
     15 O15         0.5733    2.6773   45.3448 O.3     1  ZINC000518242403   -0.3000
     16 C16        -1.0263    1.5305   49.1609 C.2     1  ZINC000518242403    0.7100
     17 O17        -1.8771    1.5748   48.2931 O.2     1  ZINC000518242403   -0.5700
     18 N18        -1.3861    1.5614   50.4593 N.am    1  ZINC000518242403   -0.6800
     19 C19        -2.7404    1.6445   50.8094 C.ar    1  ZINC000518242403    0.1700
     20 C20        -3.6056    0.6085   50.4863 C.ar    1  ZINC000518242403   -0.1000
     21 C21        -4.9440    0.6908   50.8329 C.ar    1  ZINC000518242403    0.0500
     22 C22        -5.4189    1.8141   51.5056 C.ar    1  ZINC000518242403    0.0200
     23 C23        -4.5521    2.8464   51.8257 C.ar    1  ZINC000518242403   -0.0800
     24 C24        -3.2158    2.7606   51.4847 C.ar    1  ZINC000518242403   -0.1000
     25 C25        -2.2759    3.8855   51.8345 C.3     1  ZINC000518242403   -0.1100
     26 O26        -6.7568    1.6542   51.7306 O.3     1  ZINC000518242403   -0.3100
     27 C27        -7.1756    0.6108   50.8312 C.3     1  ZINC000518242403    0.2100
     28 O28        -5.9832   -0.1723   50.6368 O.3     1  ZINC000518242403   -0.3100
     29 H29         2.0624    3.3628   49.4325 H       1  ZINC000518242403    0.0600
     30 H30         0.7905    3.3263   50.6773 H       1  ZINC000518242403    0.0600
     31 H31         2.4371    2.7765   51.0708 H       1  ZINC000518242403    0.0700
     32 H32         2.1851    0.8868   49.4853 H       1  ZINC000518242403    0.1000
     33 H33         0.9133    0.8502   50.7300 H       1  ZINC000518242403    0.0700
     34 H34         1.7544    1.3961   47.3372 H       1  ZINC000518242403    0.1100
     35 H35         0.2515    0.5288   46.9404 H       1  ZINC000518242403    0.0900
     36 H36         0.3457    3.9457   48.4369 H       1  ZINC000518242403    0.1300
     37 H37         1.7662    3.9237   47.3596 H       1  ZINC000518242403    0.0800
     38 H38        -0.0346    7.1620   45.1644 H       1  ZINC000518242403    0.1300
     39 H39         0.0862    7.1453   42.7064 H       1  ZINC000518242403    0.1300
     40 H40         0.4280    5.0275   41.5020 H       1  ZINC000518242403    0.1300
     41 H41         0.6551    2.9194   42.7514 H       1  ZINC000518242403    0.1300
     42 H42        -0.7074    1.5262   51.1516 H       1  ZINC000518242403    0.4100
     43 H43        -3.2354   -0.2615   49.9644 H       1  ZINC000518242403    0.1500
     44 H44        -4.9204    3.7174   52.3473 H       1  ZINC000518242403    0.1400
     45 H45        -1.8479    3.7078   52.8211 H       1  ZINC000518242403    0.0800
     46 H46        -1.4765    3.9343   51.0951 H       1  ZINC000518242403    0.0700
     47 H47        -2.8234    4.8279   51.8403 H       1  ZINC000518242403    0.0800
     48 H48        -7.9610    0.0064   51.2850 H       1  ZINC000518242403    0.1300
     49 H49        -7.5146    1.0336   49.8855 H       1  ZINC000518242403    0.0900
@<TRIPOS>BOND
     1     1     2    1
     2     1    29    1
     3     1    30    1
     4     1    31    1
     5     2     3    1
     6     2    32    1
     7     2    33    1
     8     3     4    1
     9     3    16   am
    10     4     5    1
    11     4    34    1
    12     4    35    1
    13     5     6    1
    14     5    15    1
    15     5     7    1
    16     7     8    1
    17     7    36    1
    18     7    37    1
    19     8     9    1
    20     9    14   ar
    21     9    10   ar
    22    10    11   ar
    23    10    38    1
    24    11    12   ar
    25    11    39    1
    26    12    13   ar
    27    12    40    1
    28    13    14   ar
    29    13    41    1
    30    14    15    1
    31    16    17    2
    32    16    18   am
    33    18    19    1
    34    18    42    1
    35    19    24   ar
    36    19    20   ar
    37    20    21   ar
    38    20    43    1
    39    21    28    1
    40    21    22   ar
    41    22    23   ar
    42    22    26    1
    43    23    24   ar
    44    23    44    1
    45    24    25    1
    46    25    45    1
    47    25    46    1
    48    25    47    1
    49    26    27    1
    50    27    28    1
    51    27    48    1
    52    27    49    1
@<TRIPOS>SUBSTRUCTURE
     1 ZINC000518242403        1 TEMP              0 ****  ****    0 ROOT


##########                                Name:    ZINC001326371752
##########                DOCK_Rotatable_Bonds:                   5
##########                         Heavy_Atoms:                  25
##########                    Molecular_Weight:             360.397
##########                DOCK_Rotatable_Bonds:                   5
##########                       Formal_Charge:           0.0199999
##########                     HBond_Acceptors:                  10
##########                        HBond_Donors:                   0
##########                         Heavy_Atoms:                  25
##########                          Grid_Score:          -31.445539
##########                     Grid_vdw_energy:          -31.184547
##########                      Grid_es_energy:           -0.260992
##########           Internal_energy_repulsive:            7.625952

@<TRIPOS>MOLECULE
ZINC001326371752
 41 44 1 0 0
SMALL
USER_CHARGES


@<TRIPOS>ATOM
      1 C1          2.5553   -0.0579   41.4596 C.3     1  ZINC001326371752    0.0300
      2 O2          2.6119    0.0178   42.8855 O.3     1  ZINC001326371752   -0.3800
      3 C3          1.5329    0.7484   43.4720 C.3     1  ZINC001326371752    0.0500
      4 C4          1.6774    0.7366   44.9951 C.3     1  ZINC001326371752    0.1200
      5 N5          0.6007    1.5294   45.5939 N.pl3   1  ZINC001326371752   -0.2800
      6 N6         -0.4539    1.9583   44.9855 N.2     1  ZINC001326371752   -0.0800
      7 N7         -1.1992    2.6262   45.8000 N.2     1  ZINC001326371752   -0.2500
      8 C8         -0.6155    2.6405   46.9929 C.2     1  ZINC001326371752   -0.0400
      9 C9          0.5353    1.9330   46.8753 C.2     1  ZINC001326371752    0.0000
     10 C10         1.5082    1.6871   47.9969 C.3     1  ZINC001326371752   -0.0600
     11 C11         1.2370    2.7008   49.1164 C.3     1  ZINC001326371752    0.1200
     12 N12        -0.2115    2.7830   49.3547 N.am    1  ZINC001326371752   -0.6100
     13 C13        -0.7393    2.4014   50.5346 C.2     1  ZINC001326371752    0.6100
     14 O14        -0.0147    1.9826   51.4182 O.2     1  ZINC001326371752   -0.5100
     15 C15        -2.1875    2.4907   50.7540 C.2     1  ZINC001326371752   -0.3400
     16 C16        -2.7582    3.6554   51.2800 C.2     1  ZINC001326371752    0.2400
     17 N17        -4.0640    3.7005   51.4640 N.2     1  ZINC001326371752   -0.5100
     18 C18        -4.8500    2.6746   51.1651 C.2     1  ZINC001326371752    0.2900
     19 S19        -6.5563    2.4906   51.3109 S.3     1  ZINC001326371752    0.2500
     20 C20        -6.5836    0.8394   50.6720 C.2     1  ZINC001326371752   -0.2100
     21 C21        -5.3234    0.5476   50.3978 C.2     1  ZINC001326371752    0.0500
     22 N22        -4.3756    1.5096   50.6512 N.am    1  ZINC001326371752   -0.4600
     23 C23        -3.0317    1.4053   50.4329 C.2     1  ZINC001326371752    0.5500
     24 O24        -2.5633    0.3805   49.9683 O.2     1  ZINC001326371752   -0.5000
     25 C25        -1.0759    3.2894   48.2735 C.3     1  ZINC001326371752    0.2000
     26 H26         3.4084   -0.6281   41.0920 H       1  ZINC001326371752    0.0900
     27 H27         1.6313   -0.5516   41.1584 H       1  ZINC001326371752    0.0500
     28 H28         2.5829    0.9480   41.0410 H       1  ZINC001326371752    0.0500
     29 H29         1.5533    1.7775   43.1131 H       1  ZINC001326371752    0.0600
     30 H30         0.5864    0.2851   43.1933 H       1  ZINC001326371752    0.0600
     31 H31         1.6179   -0.2895   45.3578 H       1  ZINC001326371752    0.1200
     32 H32         2.6408    1.1646   45.2720 H       1  ZINC001326371752    0.1200
     33 H33         1.3760    0.6753   48.3801 H       1  ZINC001326371752    0.0900
     34 H34         2.5273    1.8111   47.6305 H       1  ZINC001326371752    0.1000
     35 H35         1.7384    2.3783   50.0290 H       1  ZINC001326371752    0.1100
     36 H36         1.6134    3.6800   48.8200 H       1  ZINC001326371752    0.0800
     37 H37        -2.1393    4.5040   51.5316 H       1  ZINC001326371752    0.1900
     38 H38        -7.4467    0.2048   50.5357 H       1  ZINC001326371752    0.2200
     39 H39        -5.0486   -0.4134   49.9889 H       1  ZINC001326371752    0.2000
     40 H40        -0.9739    4.3717   48.1928 H       1  ZINC001326371752    0.1000
     41 H41        -2.1145    3.0275   48.4751 H       1  ZINC001326371752    0.1000
@<TRIPOS>BOND
     1     1     2    1
     2     1    26    1
     3     1    27    1
     4     1    28    1
     5     2     3    1
     6     3     4    1
     7     3    29    1
     8     3    30    1
     9     4     5    1
    10     4    31    1
    11     4    32    1
    12     5     9    1
    13     5     6    1
    14     6     7    2
    15     7     8    1
    16     8    25    1
    17     8     9    2
    18     9    10    1
    19    10    11    1
    20    10    33    1
    21    10    34    1
    22    11    12    1
    23    11    35    1
    24    11    36    1
    25    12    13   am
    26    12    25    1
    27    13    14    2
    28    13    15    1
    29    15    23    1
    30    15    16    2
    31    16    17    1
    32    16    37    1
    33    17    18    2
    34    18    22    1
    35    18    19    1
    36    19    20    1
    37    20    21    2
    38    20    38    1
    39    21    22    1
    40    21    39    1
    41    22    23   am
    42    23    24    2
    43    25    40    1
    44    25    41    1
@<TRIPOS>SUBSTRUCTURE
     1 ZINC001326371752        1 TEMP              0 ****  ****    0 ROOT


##########                                Name:    ZINC000821214121
##########                DOCK_Rotatable_Bonds:                  10
##########                         Heavy_Atoms:                  23
##########                    Molecular_Weight:             338.434
##########                DOCK_Rotatable_Bonds:                  10
##########                       Formal_Charge:          0.00999954
##########                     HBond_Acceptors:                   9
##########                        HBond_Donors:                   3
##########                         Heavy_Atoms:                  23
##########                          Grid_Score:          -31.419334
##########                     Grid_vdw_energy:          -30.868370
##########                      Grid_es_energy:           -0.550964
##########           Internal_energy_repulsive:            8.981170

@<TRIPOS>MOLECULE
ZINC000821214121
 45 46 1 0 0
SMALL
USER_CHARGES


@<TRIPOS>ATOM
      1 C1          1.1519    4.0668   47.7083 C.3     1  ZINC000821214121   -0.1500
      2 C2          1.2823    2.5839   48.0617 C.3     1  ZINC000821214121    0.0500
      3 N3          0.1914    1.8317   47.4274 N.3     1  ZINC000821214121   -0.5200
      4 C4          0.6315    1.2346   46.1594 C.3     1  ZINC000821214121    0.0600
      5 C5         -0.5743    1.0547   45.2349 C.3     1  ZINC000821214121   -0.1200
      6 C6         -1.1174    2.4271   44.8321 C.3     1  ZINC000821214121    0.0800
      7 O7         -0.2039    3.0550   43.9303 O.3     1  ZINC000821214121   -0.5700
      8 C8         -0.3388    0.8064   48.3360 C.3     1  ZINC000821214121    0.0400
      9 C9         -1.6407    1.2830   48.9264 C.2     1  ZINC000821214121    0.5000
     10 O10        -2.2402    2.2027   48.4102 O.2     1  ZINC000821214121   -0.4800
     11 N11        -2.1393    0.6876   50.0279 N.am    1  ZINC000821214121   -0.6300
     12 C12        -3.3442    1.1274   50.5730 C.2     1  ZINC000821214121    0.0800
     13 C13        -3.4963    2.2264   51.3650 C.2     1  ZINC000821214121   -0.1000
     14 C14        -2.3669    3.1064   51.7496 C.2     1  ZINC000821214121    0.2900
     15 N15        -1.4051    2.8154   52.6066 N.2     1  ZINC000821214121   -0.3300
     16 N16        -0.5708    3.9447   52.6468 N.pl3   1  ZINC000821214121   -0.2900
     17 N17        -1.0693    4.8147   51.8365 N.2     1  ZINC000821214121    0.0200
     18 N18        -2.1307    4.3395   51.2883 N.2     1  ZINC000821214121   -0.2900
     19 C19        -4.8086    2.4495   51.7815 C.2     1  ZINC000821214121   -0.0500
     20 C20        -5.1914    3.6110   52.6622 C.3     1  ZINC000821214121   -0.1000
     21 C21        -5.6964    1.5629   51.3442 C.2     1  ZINC000821214121   -0.2400
     22 C22        -7.1700    1.5923   51.6585 C.3     1  ZINC000821214121   -0.0800
     23 S23        -4.9069    0.3553   50.3404 S.3     1  ZINC000821214121    0.2600
     24 H24         1.1098    4.1798   46.6249 H       1  ZINC000821214121    0.0700
     25 H25         0.2399    4.4671   48.1511 H       1  ZINC000821214121    0.0500
     26 H26         2.0133    4.6100   48.0970 H       1  ZINC000821214121    0.0600
     27 H27         2.2401    2.2076   47.7023 H       1  ZINC000821214121    0.0900
     28 H28         1.2268    2.4619   49.1434 H       1  ZINC000821214121    0.0400
     29 H29         1.3602    1.8902   45.6827 H       1  ZINC000821214121    0.0400
     30 H30         1.0881    0.2642   46.3539 H       1  ZINC000821214121    0.0800
     31 H31        -0.2696    0.5083   44.3423 H       1  ZINC000821214121    0.0800
     32 H32        -1.3512    0.4951   45.7558 H       1  ZINC000821214121    0.0700
     33 H33        -2.0845    2.3063   44.3441 H       1  ZINC000821214121    0.0400
     34 H34        -1.2340    3.0469   45.7211 H       1  ZINC000821214121    0.0500
     35 H35        -0.4609    3.9502   43.6698 H       1  ZINC000821214121    0.3800
     36 H36        -0.5074   -0.1174   47.7826 H       1  ZINC000821214121    0.0700
     37 H37         0.3783    0.6244   49.1365 H       1  ZINC000821214121    0.1200
     38 H38        -1.6594   -0.0470   50.4415 H       1  ZINC000821214121    0.4200
     39 H39         0.2300    4.0502   53.1838 H       1  ZINC000821214121    0.4700
     40 H40        -5.4501    4.4683   52.0407 H       1  ZINC000821214121    0.0700
     41 H41        -6.0491    3.3347   53.2754 H       1  ZINC000821214121    0.0700
     42 H42        -4.3519    3.8699   53.3073 H       1  ZINC000821214121    0.0900
     43 H43        -7.6915    2.1769   50.9008 H       1  ZINC000821214121    0.0700
     44 H44        -7.5605    0.5746   51.6647 H       1  ZINC000821214121    0.0700
     45 H45        -7.3237    2.0464   52.6374 H       1  ZINC000821214121    0.0800
@<TRIPOS>BOND
     1     1     2    1
     2     1    24    1
     3     1    25    1
     4     1    26    1
     5     2     3    1
     6     2    27    1
     7     2    28    1
     8     3     4    1
     9     3     8    1
    10     4     5    1
    11     4    29    1
    12     4    30    1
    13     5     6    1
    14     5    31    1
    15     5    32    1
    16     6     7    1
    17     6    33    1
    18     6    34    1
    19     7    35    1
    20     8     9    1
    21     8    36    1
    22     8    37    1
    23     9    10    2
    24     9    11   am
    25    11    12    1
    26    11    38    1
    27    12    23    1
    28    12    13    2
    29    13    14    1
    30    13    19    1
    31    14    18    1
    32    14    15    2
    33    15    16    1
    34    16    17    1
    35    16    39    1
    36    17    18    2
    37    19    20    1
    38    19    21    2
    39    20    40    1
    40    20    41    1
    41    20    42    1
    42    21    22    1
    43    21    23    1
    44    22    43    1
    45    22    44    1
    46    22    45    1
@<TRIPOS>SUBSTRUCTURE
     1 ZINC000821214121        1 TEMP              0 ****  ****    0 ROOT


##########                                Name:    ZINC000015179664
##########                DOCK_Rotatable_Bonds:                   8
##########                         Heavy_Atoms:                  25
##########                    Molecular_Weight:             361.422
##########                DOCK_Rotatable_Bonds:                   8
##########                       Formal_Charge:        -2.23517e-07
##########                     HBond_Acceptors:                   8
##########                        HBond_Donors:                   1
##########                         Heavy_Atoms:                  25
##########                          Grid_Score:          -31.403067
##########                     Grid_vdw_energy:          -29.183664
##########                      Grid_es_energy:           -2.219402
##########           Internal_energy_repulsive:           21.288351

@<TRIPOS>MOLECULE
ZINC000015179664
 44 45 1 0 0
SMALL
USER_CHARGES


@<TRIPOS>ATOM
      1 C1         -4.9895    5.7192   53.7204 C.3     1  ZINC000015179664   -0.1600
      2 C2         -4.3510    4.3290   53.6946 C.3     1  ZINC000015179664    0.1800
      3 H3         -3.4580    4.3508   53.0701 H       1  ZINC000015179664    0.1200
      4 C4         -5.3339    3.3352   53.1312 C.ar    1  ZINC000015179664   -0.1000
      5 C5         -6.6167    3.2669   53.6411 C.ar    1  ZINC000015179664   -0.0700
      6 C6         -7.5184    2.3551   53.1241 C.ar    1  ZINC000015179664   -0.1200
      7 C7         -7.1371    1.5123   52.0972 C.ar    1  ZINC000015179664   -0.0500
      8 C8         -5.8542    1.5814   51.5864 C.ar    1  ZINC000015179664   -0.0400
      9 N9         -5.4458    0.6785   50.4869 N.pl3   1  ZINC000015179664    0.0300
     10 O10        -6.2398   -0.1252   50.0320 O.2     1  ZINC000015179664   -0.1600
     11 O11        -4.3155    0.7395   50.0370 O.2     1  ZINC000015179664   -0.1500
     12 C12        -4.9541    2.4958   52.1003 C.ar    1  ZINC000015179664   -0.0400
     13 N13        -3.9846    3.9346   55.0571 N.am    1  ZINC000015179664   -0.6100
     14 C14        -4.9870    3.9715   56.1250 C.3     1  ZINC000015179664    0.0600
     15 C15        -2.7255    3.5378   55.3282 C.2     1  ZINC000015179664    0.5200
     16 O16        -1.8961    3.5059   54.4439 O.2     1  ZINC000015179664   -0.5200
     17 C17        -2.3481    3.1339   56.7301 C.3     1  ZINC000015179664   -0.1500
     18 C18        -1.0203    2.3743   56.7021 C.3     1  ZINC000015179664    0.1300
     19 N19        -0.7302    1.8483   58.0383 N.am    1  ZINC000015179664   -0.7300
     20 C20        -0.0648    2.6071   58.9314 C.2     1  ZINC000015179664    0.5800
     21 O21         0.2963    3.7282   58.6277 O.2     1  ZINC000015179664   -0.5300
     22 C22         0.2251    2.0792   60.2745 C.2     1  ZINC000015179664   -0.1500
     23 C23         0.8363    2.8042   61.2495 C.2     1  ZINC000015179664   -0.2200
     24 S24         1.0109    1.8810   62.6715 S.3     1  ZINC000015179664    0.1900
     25 C25         0.2439    0.4793   61.9455 C.2     1  ZINC000015179664   -0.2300
     26 C26        -0.1158    0.7399   60.6943 C.2     1  ZINC000015179664   -0.0900
     27 H27        -5.2621    6.0127   52.7065 H       1  ZINC000015179664    0.0800
     28 H28        -5.8826    5.6974   54.3448 H       1  ZINC000015179664    0.0600
     29 H29        -4.2786    6.4380   54.1279 H       1  ZINC000015179664    0.0700
     30 H30        -6.9146    3.9253   54.4436 H       1  ZINC000015179664    0.1500
     31 H31        -8.5205    2.3011   53.5231 H       1  ZINC000015179664    0.1500
     32 H32        -7.8413    0.7997   51.6939 H       1  ZINC000015179664    0.1600
     33 H33        -3.9520    2.5498   51.7014 H       1  ZINC000015179664    0.1600
     34 H34        -5.5250    3.0240   56.1511 H       1  ZINC000015179664    0.0600
     35 H35        -4.4920    4.1349   57.0823 H       1  ZINC000015179664    0.0800
     36 H36        -5.6895    4.7833   55.9360 H       1  ZINC000015179664    0.0800
     37 H37        -2.2440    4.0249   57.3493 H       1  ZINC000015179664    0.1000
     38 H38        -3.1252    2.4920   57.1450 H       1  ZINC000015179664    0.1000
     39 H39        -1.0889    1.5488   55.9936 H       1  ZINC000015179664    0.0800
     40 H40        -0.2215    3.0500   56.3963 H       1  ZINC000015179664    0.0800
     41 H41        -1.0171    0.9538   58.2801 H       1  ZINC000015179664    0.4000
     42 H42         1.1662    3.8265   61.1376 H       1  ZINC000015179664    0.1700
     43 H43         0.0833   -0.4631   62.4480 H       1  ZINC000015179664    0.1700
     44 H44        -0.6060    0.0218   60.0538 H       1  ZINC000015179664    0.1600
@<TRIPOS>BOND
     1     1     2    1
     2     1    27    1
     3     1    28    1
     4     1    29    1
     5     2     3    1
     6     2     4    1
     7     2    13    1
     8     4    12   ar
     9     4     5   ar
    10     5     6   ar
    11     5    30    1
    12     6     7   ar
    13     6    31    1
    14     7     8   ar
    15     7    32    1
    16     8     9    1
    17     8    12   ar
    18     9    10    2
    19     9    11    2
    20    12    33    1
    21    13    14    1
    22    13    15   am
    23    14    34    1
    24    14    35    1
    25    14    36    1
    26    15    16    2
    27    15    17    1
    28    17    18    1
    29    17    37    1
    30    17    38    1
    31    18    19    1
    32    18    39    1
    33    18    40    1
    34    19    20   am
    35    19    41    1
    36    20    21    2
    37    20    22    1
    38    22    26    1
    39    22    23    2
    40    23    24    1
    41    23    42    1
    42    24    25    1
    43    25    26    2
    44    25    43    1
    45    26    44    1
@<TRIPOS>SUBSTRUCTURE
     1 ZINC000015179664        1 TEMP              0 ****  ****    0 ROOT


##########                                Name:    ZINC000000992968
##########                DOCK_Rotatable_Bonds:                   8
##########                         Heavy_Atoms:                  27
##########                    Molecular_Weight:             384.772
##########                DOCK_Rotatable_Bonds:                   8
##########                       Formal_Charge:           0.0199999
##########                     HBond_Acceptors:                   7
##########                        HBond_Donors:                   0
##########                         Heavy_Atoms:                  27
##########                          Grid_Score:          -31.375635
##########                     Grid_vdw_energy:          -30.044069
##########                      Grid_es_energy:           -1.331565
##########           Internal_energy_repulsive:            5.145717

@<TRIPOS>MOLECULE
ZINC000000992968
 40 42 1 0 0
SMALL
USER_CHARGES


@<TRIPOS>ATOM
      1 O1         -9.3209    1.0891   55.2047 O.2     1  ZINC000000992968   -0.4600
      2 C2         -9.9833    1.2775   54.2022 C.2     1  ZINC000000992968    0.5600
      3 O3         -9.5295    2.1076   53.2398 O.3     1  ZINC000000992968   -0.2900
      4 C4         -8.3571    1.7967   52.6313 C.ar    1  ZINC000000992968    0.1200
      5 C5         -7.2650    2.6487   52.7552 C.ar    1  ZINC000000992968   -0.1300
      6 C6         -6.0739    2.3383   52.1398 C.ar    1  ZINC000000992968   -0.0400
      7 C7         -5.9626    1.1621   51.3882 C.ar    1  ZINC000000992968   -0.1600
      8 C8         -4.6935    0.8256   50.7296 C.2     1  ZINC000000992968    0.4000
      9 O9         -4.6025   -0.1884   50.0704 O.2     1  ZINC000000992968   -0.4200
     10 C10        -3.5044    1.7404   50.8729 C.3     1  ZINC000000992968    0.0200
     11 O11        -2.3884    1.2061   50.1132 O.3     1  ZINC000000992968   -0.3300
     12 C12        -1.3387    2.0258   49.9097 C.2     1  ZINC000000992968    0.5100
     13 O13        -1.2110    3.0280   50.5843 O.2     1  ZINC000000992968   -0.5000
     14 C14        -0.3435    1.7060   48.8668 C.ar    1  ZINC000000992968   -0.1300
     15 C15         1.0147    1.6491   49.1874 C.ar    1  ZINC000000992968   -0.0500
     16 C16         1.9390    1.3494   48.2092 C.ar    1  ZINC000000992968   -0.1200
     17 C17         1.5230    1.1054   46.9106 C.ar    1  ZINC000000992968    0.0000
     18 Cl18        2.6929    0.7293   45.6845 Cl      1  ZINC000000992968   -0.0500
     19 C19         0.1773    1.1599   46.5865 C.ar    1  ZINC000000992968   -0.1200
     20 C20        -0.7572    1.4532   47.5569 C.ar    1  ZINC000000992968   -0.0400
     21 C21        -7.0652    0.3075   51.2671 C.ar    1  ZINC000000992968   -0.0600
     22 C22        -8.2502    0.6245   51.8908 C.ar    1  ZINC000000992968   -0.1200
     23 C23       -11.2705    0.5990   54.0368 C.2     1  ZINC000000992968   -0.0700
     24 C24       -12.1109    0.7209   52.9661 C.2     1  ZINC000000992968   -0.0900
     25 C25       -13.2185   -0.0998   53.2275 C.2     1  ZINC000000992968   -0.2300
     26 C26       -13.0093   -0.6796   54.4305 C.2     1  ZINC000000992968    0.0200
     27 O27       -11.8322   -0.2606   54.9122 O.3     1  ZINC000000992968   -0.1500
     28 H28        -7.3518    3.5557   53.3350 H       1  ZINC000000992968    0.1400
     29 H29        -5.2265    3.0009   52.2360 H       1  ZINC000000992968    0.1500
     30 H30        -3.7601    2.7304   50.4954 H       1  ZINC000000992968    0.1100
     31 H31        -3.2266    1.8130   51.9244 H       1  ZINC000000992968    0.1100
     32 H32         1.3402    1.8398   50.1994 H       1  ZINC000000992968    0.1500
     33 H33         2.9895    1.3052   48.4558 H       1  ZINC000000992968    0.1500
     34 H34        -0.1408    0.9683   45.5724 H       1  ZINC000000992968    0.1500
     35 H35        -1.8060    1.4951   47.3030 H       1  ZINC000000992968    0.1500
     36 H36        -6.9845   -0.6008   50.6883 H       1  ZINC000000992968    0.1400
     37 H37        -9.1011   -0.0341   51.7982 H       1  ZINC000000992968    0.1400
     38 H38       -11.9531    1.3307   52.0888 H       1  ZINC000000992968    0.1700
     39 H39       -14.0769   -0.2416   52.5877 H       1  ZINC000000992968    0.1700
     40 H40       -13.6795   -1.3701   54.9208 H       1  ZINC000000992968    0.2200
@<TRIPOS>BOND
     1     1     2    2
     2     2     3    1
     3     2    23    1
     4     3     4    1
     5     4    22   ar
     6     4     5   ar
     7     5     6   ar
     8     5    28    1
     9     6     7   ar
    10     6    29    1
    11     7     8    1
    12     7    21   ar
    13     8     9    2
    14     8    10    1
    15    10    11    1
    16    10    30    1
    17    10    31    1
    18    11    12    1
    19    12    13    2
    20    12    14    1
    21    14    20   ar
    22    14    15   ar
    23    15    16   ar
    24    15    32    1
    25    16    17   ar
    26    16    33    1
    27    17    18    1
    28    17    19   ar
    29    19    20   ar
    30    19    34    1
    31    20    35    1
    32    21    22   ar
    33    21    36    1
    34    22    37    1
    35    23    27    1
    36    23    24    2
    37    24    25    1
    38    24    38    1
    39    25    26    2
    40    25    39    1
    41    26    27    1
    42    26    40    1
@<TRIPOS>SUBSTRUCTURE
     1 ZINC000000992968        1 TEMP              0 ****  ****    0 ROOT


##########                                Name:    ZINC000603906271
##########                DOCK_Rotatable_Bonds:                   8
##########                         Heavy_Atoms:                  29
##########                    Molecular_Weight:             391.473
##########                DOCK_Rotatable_Bonds:                   8
##########                       Formal_Charge:           0.0499998
##########                     HBond_Acceptors:                   7
##########                        HBond_Donors:                   3
##########                         Heavy_Atoms:                  29
##########                          Grid_Score:          -31.338367
##########                     Grid_vdw_energy:          -28.853853
##########                      Grid_es_energy:           -2.484515
##########           Internal_energy_repulsive:           20.324564

@<TRIPOS>MOLECULE
ZINC000603906271
 54 56 1 0 0
SMALL
USER_CHARGES


@<TRIPOS>ATOM
      1 C1         -6.1400   -0.1530   50.9398 C.3     1  ZINC000603906271   -0.1600
      2 C2         -5.5519    1.2470   50.7530 C.3     1  ZINC000603906271    0.1300
      3 H3         -6.0570    1.7460   49.9259 H       1  ZINC000603906271    0.1200
      4 N4         -5.7410    2.0239   51.9806 N.am    1  ZINC000603906271   -0.7100
      5 C5         -6.8993    2.6800   52.1913 C.2     1  ZINC000603906271    0.5700
      6 O6         -7.7865    2.6284   51.3619 O.2     1  ZINC000603906271   -0.5300
      7 C7         -7.0909    3.4626   53.4309 C.ar    1  ZINC000603906271   -0.1400
      8 C8         -6.0353    3.6200   54.3304 C.ar    1  ZINC000603906271   -0.0800
      9 C9         -6.2205    4.3518   55.4851 C.ar    1  ZINC000603906271   -0.1200
     10 C10        -7.4494    4.9286   55.7527 C.ar    1  ZINC000603906271   -0.0400
     11 C11        -7.6445    5.7263   57.0162 C.3     1  ZINC000603906271   -0.0400
     12 C12        -6.4770    6.6996   57.1904 C.3     1  ZINC000603906271   -0.1400
     13 C13        -8.9543    6.5119   56.9262 C.3     1  ZINC000603906271   -0.1500
     14 C14        -7.7004    4.7772   58.2150 C.3     1  ZINC000603906271   -0.1400
     15 C15        -8.4997    4.7767   54.8649 C.ar    1  ZINC000603906271   -0.1300
     16 C16        -8.3262    4.0518   53.7040 C.ar    1  ZINC000603906271   -0.0500
     17 C17        -4.0799    1.1372   50.4497 C.2     1  ZINC000603906271    0.5100
     18 O18        -3.5904    0.0549   50.2042 O.2     1  ZINC000603906271   -0.5100
     19 N19        -3.3072    2.2414   50.4514 N.am    1  ZINC000603906271   -0.6700
     20 C20        -1.9403    2.1393   50.1697 C.ar    1  ZINC000603906271    0.1300
     21 C21        -1.0088    2.2648   51.1929 C.ar    1  ZINC000603906271   -0.1200
     22 C22         0.3422    2.1645   50.9185 C.ar    1  ZINC000603906271   -0.1000
     23 C23         0.7734    1.9397   49.6266 C.ar    1  ZINC000603906271   -0.0900
     24 C24        -0.1541    1.8131   48.5939 C.ar    1  ZINC000603906271    0.0000
     25 C25         0.3080    1.5719   47.2043 C.2     1  ZINC000603906271    0.2700
     26 N26         1.0965    0.5931   46.8177 N.2     1  ZINC000603906271   -0.3000
     27 N27         1.2755    0.7417   45.4328 N.pl3   1  ZINC000603906271   -0.4800
     28 C28         0.5662    1.8254   45.0696 C.2     1  ZINC000603906271    0.2700
     29 N29        -0.0138    2.3120   46.1348 N.2     1  ZINC000603906271   -0.5300
     30 C30        -1.5151    1.9072   48.8702 C.ar    1  ZINC000603906271   -0.0800
     31 H31        -5.6349   -0.6519   51.7669 H       1  ZINC000603906271    0.0700
     32 H32        -7.2048   -0.0736   51.1591 H       1  ZINC000603906271    0.0800
     33 H33        -5.9993   -0.7310   50.0264 H       1  ZINC000603906271    0.0700
     34 H34        -5.0325    2.0661   52.6418 H       1  ZINC000603906271    0.4100
     35 H35        -5.0758    3.1698   54.1231 H       1  ZINC000603906271    0.1300
     36 H36        -5.4046    4.4745   56.1821 H       1  ZINC000603906271    0.1300
     37 H37        -6.4372    7.3757   56.3365 H       1  ZINC000603906271    0.0600
     38 H38        -6.6181    7.2765   58.1044 H       1  ZINC000603906271    0.0600
     39 H39        -5.5439    6.1399   57.2546 H       1  ZINC000603906271    0.0600
     40 H40        -9.7862    5.8185   56.8022 H       1  ZINC000603906271    0.0600
     41 H41        -9.0955    7.0888   57.8402 H       1  ZINC000603906271    0.0600
     42 H42        -8.9145    7.1880   56.0723 H       1  ZINC000603906271    0.0600
     43 H43        -6.7673    4.2175   58.2790 H       1  ZINC000603906271    0.0600
     44 H44        -7.8416    5.3541   59.1289 H       1  ZINC000603906271    0.0600
     45 H45        -8.5322    4.0837   58.0909 H       1  ZINC000603906271    0.0600
     46 H46        -9.4563    5.2298   55.0795 H       1  ZINC000603906271    0.1400
     47 H47        -9.1468    3.9343   53.0116 H       1  ZINC000603906271    0.1400
     48 H48        -3.6987    3.1069   50.6476 H       1  ZINC000603906271    0.4200
     49 H49        -1.3411    2.4413   52.2051 H       1  ZINC000603906271    0.1300
     50 H50         1.0625    2.2627   51.7172 H       1  ZINC000603906271    0.1400
     51 H51         1.8299    1.8623   49.4158 H       1  ZINC000603906271    0.1400
     52 H52         1.8066    0.1744   44.8523 H       1  ZINC000603906271    0.4400
     53 H53         0.4858    2.2225   44.0684 H       1  ZINC000603906271    0.2300
     54 H54        -2.2375    1.8097   48.0734 H       1  ZINC000603906271    0.1500
@<TRIPOS>BOND
     1     1     2    1
     2     1    31    1
     3     1    32    1
     4     1    33    1
     5     2     3    1
     6     2     4    1
     7     2    17    1
     8     4     5   am
     9     4    34    1
    10     5     6    2
    11     5     7    1
    12     7    16   ar
    13     7     8   ar
    14     8     9   ar
    15     8    35    1
    16     9    10   ar
    17     9    36    1
    18    10    11    1
    19    10    15   ar
    20    11    12    1
    21    11    13    1
    22    11    14    1
    23    12    37    1
    24    12    38    1
    25    12    39    1
    26    13    40    1
    27    13    41    1
    28    13    42    1
    29    14    43    1
    30    14    44    1
    31    14    45    1
    32    15    16   ar
    33    15    46    1
    34    16    47    1
    35    17    18    2
    36    17    19   am
    37    19    20    1
    38    19    48    1
    39    20    30   ar
    40    20    21   ar
    41    21    22   ar
    42    21    49    1
    43    22    23   ar
    44    22    50    1
    45    23    24   ar
    46    23    51    1
    47    24    25    1
    48    24    30   ar
    49    25    29    1
    50    25    26    2
    51    26    27    1
    52    27    28    1
    53    27    52    1
    54    28    29    2
    55    28    53    1
    56    30    54    1
@<TRIPOS>SUBSTRUCTURE
     1 ZINC000603906271        1 TEMP              0 ****  ****    0 ROOT


##########                                Name:    ZINC000451019064
##########                DOCK_Rotatable_Bonds:                   8
##########                         Heavy_Atoms:                  23
##########                    Molecular_Weight:             346.534
##########                DOCK_Rotatable_Bonds:                   8
##########                       Formal_Charge:          -0.0200008
##########                     HBond_Acceptors:                   6
##########                        HBond_Donors:                   1
##########                         Heavy_Atoms:                  23
##########                          Grid_Score:          -31.329256
##########                     Grid_vdw_energy:          -31.515972
##########                      Grid_es_energy:            0.186716
##########           Internal_energy_repulsive:            9.693074

@<TRIPOS>MOLECULE
ZINC000451019064
 57 58 1 0 0
SMALL
USER_CHARGES


@<TRIPOS>ATOM
      1 C1         -5.6773    0.9521   50.2107 C.3     1  ZINC000451019064   -0.1500
      2 C2         -4.2407    1.1300   50.7064 C.3     1  ZINC000451019064    0.0900
      3 H3         -3.9570    0.2718   51.3155 H       1  ZINC000451019064    0.0700
      4 C4         -4.1441    2.4069   51.5456 C.3     1  ZINC000451019064    0.0200
      5 N5         -2.7472    2.6137   51.9546 N.3     1  ZINC000451019064   -0.5400
      6 C6         -2.6197    3.8003   52.8111 C.3     1  ZINC000451019064    0.0600
      7 C7         -1.1777    3.9171   53.3093 C.3     1  ZINC000451019064   -0.1300
      8 C8         -1.1745    4.4639   54.7382 C.3     1  ZINC000451019064    0.1100
      9 N9         -0.1035    3.8220   55.5044 N.am    1  ZINC000451019064   -1.1200
     10 S10        -0.3207    3.4885   57.1119 S.o2    1  ZINC000451019064    2.6100
     11 O11        -0.4662    4.7655   57.7182 O.2     1  ZINC000451019064   -0.9600
     12 O12        -1.3806    2.5422   57.1335 O.2     1  ZINC000451019064   -0.9500
     13 C13         1.2358    2.7128   57.6276 C.3     1  ZINC000451019064   -0.6300
     14 C14         1.5268    3.0730   59.0858 C.3     1  ZINC000451019064   -0.1100
     15 C15         1.5094    1.8027   59.9383 C.3     1  ZINC000451019064   -0.0800
     16 C16         2.0234    2.1241   61.3430 C.3     1  ZINC000451019064   -0.1200
     17 C17         2.0061    0.8537   62.1955 C.3     1  ZINC000451019064   -0.1200
     18 C18         0.5752    0.3197   62.2859 C.3     1  ZINC000451019064   -0.1200
     19 C19         0.0612   -0.0018   60.8811 C.3     1  ZINC000451019064   -0.1200
     20 C20         0.0785    1.2686   60.0286 C.3     1  ZINC000451019064   -0.1200
     21 C21        -1.8699    2.7154   50.7793 C.3     1  ZINC000451019064    0.0200
     22 C22        -1.9894    1.4356   49.9478 C.3     1  ZINC000451019064    0.0900
     23 H23        -1.6394    0.5863   50.5345 H       1  ZINC000451019064    0.0700
     24 C24        -1.1395    1.5672   48.6823 C.3     1  ZINC000451019064   -0.1500
     25 O25        -3.3581    1.2331   49.5859 O.3     1  ZINC000451019064   -0.3800
     26 H26        -5.7451    0.0437   49.6120 H       1  ZINC000451019064    0.0700
     27 H27        -6.3495    0.8751   51.0652 H       1  ZINC000451019064    0.0700
     28 H28        -5.9604    1.8106   49.6018 H       1  ZINC000451019064    0.0600
     29 H29        -4.4797    3.2581   50.9533 H       1  ZINC000451019064    0.0400
     30 H30        -4.7719    2.3087   52.4313 H       1  ZINC000451019064    0.0900
     31 H31        -2.8796    4.6910   52.2390 H       1  ZINC000451019064    0.0400
     32 H32        -3.2922    3.7070   53.6638 H       1  ZINC000451019064    0.0800
     33 H33        -0.7079    2.9337   53.2956 H       1  ZINC000451019064    0.0800
     34 H34        -0.6226    4.5941   52.6599 H       1  ZINC000451019064    0.0800
     35 H35        -1.0090    5.5411   54.7146 H       1  ZINC000451019064    0.0800
     36 H36        -2.1346    4.2541   55.2096 H       1  ZINC000451019064    0.0700
     37 H37         0.7328    3.5921   55.0701 H       1  ZINC000451019064    0.4200
     38 H38         1.1520    1.6302   57.5305 H       1  ZINC000451019064    0.1300
     39 H39         2.0479    3.0723   56.9955 H       1  ZINC000451019064    0.1400
     40 H40         2.5074    3.5438   59.1550 H       1  ZINC000451019064    0.0800
     41 H41         0.7656    3.7641   59.4481 H       1  ZINC000451019064    0.0800
     42 H42         2.1503    1.0492   59.4805 H       1  ZINC000451019064    0.0800
     43 H43         3.0428    2.5046   61.2787 H       1  ZINC000451019064    0.0600
     44 H44         1.3826    2.8777   61.8008 H       1  ZINC000451019064    0.0700
     45 H45         2.6469    0.1002   61.7377 H       1  ZINC000451019064    0.0600
     46 H46         2.3723    1.0827   63.1963 H       1  ZINC000451019064    0.0600
     47 H47         0.5628   -0.5853   62.8932 H       1  ZINC000451019064    0.0600
     48 H48        -0.0656    1.0732   62.7436 H       1  ZINC000451019064    0.0600
     49 H49         0.7020   -0.7553   60.4233 H       1  ZINC000451019064    0.0600
     50 H50        -0.9583   -0.3823   60.9454 H       1  ZINC000451019064    0.0600
     51 H51        -0.5623    2.0222   60.4863 H       1  ZINC000451019064    0.0700
     52 H52        -0.2877    1.0396   59.0278 H       1  ZINC000451019064    0.0600
     53 H53        -2.1693    3.5715   50.1747 H       1  ZINC000451019064    0.0400
     54 H54        -0.8377    2.8425   51.1055 H       1  ZINC000451019064    0.0900
     55 H55        -0.0971    1.7240   48.9595 H       1  ZINC000451019064    0.0700
     56 H56        -1.2250    0.6557   48.0908 H       1  ZINC000451019064    0.0700
     57 H57        -1.4910    2.4157   48.0953 H       1  ZINC000451019064    0.0600
@<TRIPOS>BOND
     1     1     2    1
     2     1    26    1
     3     1    27    1
     4     1    28    1
     5     2     3    1
     6     2    25    1
     7     2     4    1
     8     4     5    1
     9     4    29    1
    10     4    30    1
    11     5     6    1
    12     5    21    1
    13     6     7    1
    14     6    31    1
    15     6    32    1
    16     7     8    1
    17     7    33    1
    18     7    34    1
    19     8     9    1
    20     8    35    1
    21     8    36    1
    22     9    10   am
    23     9    37    1
    24    10    11    2
    25    10    12    2
    26    10    13    1
    27    13    14    1
    28    13    38    1
    29    13    39    1
    30    14    15    1
    31    14    40    1
    32    14    41    1
    33    15    20    1
    34    15    16    1
    35    15    42    1
    36    16    17    1
    37    16    43    1
    38    16    44    1
    39    17    18    1
    40    17    45    1
    41    17    46    1
    42    18    19    1
    43    18    47    1
    44    18    48    1
    45    19    20    1
    46    19    49    1
    47    19    50    1
    48    20    51    1
    49    20    52    1
    50    21    22    1
    51    21    53    1
    52    21    54    1
    53    22    23    1
    54    22    24    1
    55    22    25    1
    56    24    55    1
    57    24    56    1
    58    24    57    1
@<TRIPOS>SUBSTRUCTURE
     1 ZINC000451019064        1 TEMP              0 ****  ****    0 ROOT


##########                                Name:    ZINC001098311495
##########                DOCK_Rotatable_Bonds:                   8
##########                         Heavy_Atoms:                  24
##########                    Molecular_Weight:             328.454
##########                DOCK_Rotatable_Bonds:                   8
##########                       Formal_Charge:          0.00999987
##########                     HBond_Acceptors:                   4
##########                        HBond_Donors:                   1
##########                         Heavy_Atoms:                  24
##########                          Grid_Score:          -31.327013
##########                     Grid_vdw_energy:          -30.348375
##########                      Grid_es_energy:           -0.978638
##########           Internal_energy_repulsive:           19.927492

@<TRIPOS>MOLECULE
ZINC001098311495
 52 54 1 0 0
SMALL
USER_CHARGES


@<TRIPOS>ATOM
      1 C1         -6.6118    0.6728   50.4771 C.3     1  ZINC001098311495   -0.1500
      2 C2         -5.6865    1.4609   51.4066 C.3     1  ZINC001098311495    0.0500
      3 O3         -4.6260    2.0402   50.6439 O.3     1  ZINC001098311495   -0.2800
      4 C4         -3.6939    2.7512   51.3264 C.ar    1  ZINC001098311495    0.1900
      5 C5         -4.0649    3.5131   52.4240 C.ar    1  ZINC001098311495   -0.2200
      6 C6         -3.1159    4.2416   53.1137 C.ar    1  ZINC001098311495   -0.0500
      7 C7         -1.7881    4.2123   52.7205 C.ar    1  ZINC001098311495   -0.1700
      8 C8         -1.4006    3.4557   51.6357 C.ar    1  ZINC001098311495   -0.0500
      9 C9         -2.3502    2.7144   50.9288 C.ar    1  ZINC001098311495   -0.1800
     10 C10        -1.9423    1.9022   49.7665 C.2     1  ZINC001098311495    0.5600
     11 O11        -2.5657    0.8992   49.4769 O.2     1  ZINC001098311495   -0.5200
     12 N12        -0.8787    2.2720   49.0260 N.am    1  ZINC001098311495   -0.7200
     13 C13        -0.4748    1.4665   47.8709 C.3     1  ZINC001098311495    0.1600
     14 H14        -0.8465    0.4464   47.9670 H       1  ZINC001098311495    0.1000
     15 C15         1.0654    1.4762   47.7114 C.3     1  ZINC001098311495   -0.1200
     16 C16         1.2826    2.1273   46.3121 C.3     1  ZINC001098311495    0.0500
     17 H17         2.2694    2.5576   46.1414 H       1  ZINC001098311495    0.1100
     18 C18         0.8257    1.0585   45.2739 C.3     1  ZINC001098311495   -0.1500
     19 C19        -0.7155    1.0467   45.4210 C.3     1  ZINC001098311495   -0.1500
     20 C20        -0.9823    2.1130   46.5467 C.3     1  ZINC001098311495    0.0400
     21 H21        -1.9896    2.5287   46.5703 H       1  ZINC001098311495    0.1200
     22 N22         0.1266    3.0918   46.2605 N.3     1  ZINC001098311495   -0.4900
     23 C23        -0.0161    3.6711   44.9181 C.3     1  ZINC001098311495    0.0600
     24 C24         0.1038    5.1709   45.0029 C.2     1  ZINC001098311495   -0.1600
     25 C25         0.1364    5.8884   43.9073 C.2     1  ZINC001098311495   -0.1200
     26 C26         0.2563    7.3882   43.9920 C.3     1  ZINC001098311495   -0.1200
     27 C27         0.0539    5.2138   42.5622 C.3     1  ZINC001098311495   -0.1200
     28 H28        -7.0288    1.3433   49.7258 H       1  ZINC001098311495    0.0700
     29 H29        -6.0448   -0.1172   49.9846 H       1  ZINC001098311495    0.0700
     30 H30        -7.4207    0.2309   51.0589 H       1  ZINC001098311495    0.0800
     31 H31        -5.2695    0.7904   52.1580 H       1  ZINC001098311495    0.0600
     32 H32        -6.2535    2.2509   51.8992 H       1  ZINC001098311495    0.0600
     33 H33        -5.0982    3.5407   52.7369 H       1  ZINC001098311495    0.1300
     34 H34        -3.4106    4.8372   53.9650 H       1  ZINC001098311495    0.1300
     35 H35        -1.0530    4.7849   53.2667 H       1  ZINC001098311495    0.1300
     36 H36        -0.3642    3.4360   51.3324 H       1  ZINC001098311495    0.1300
     37 H37        -0.3806    3.0715   49.2578 H       1  ZINC001098311495    0.4000
     38 H38         1.4592    0.4600   47.7271 H       1  ZINC001098311495    0.0800
     39 H39         1.5281    2.0803   48.4917 H       1  ZINC001098311495    0.0800
     40 H40         1.1127    1.3561   44.2653 H       1  ZINC001098311495    0.0700
     41 H41         1.2423    0.0817   45.5200 H       1  ZINC001098311495    0.0800
     42 H42        -1.1926    1.3384   44.4853 H       1  ZINC001098311495    0.0700
     43 H43        -1.0631    0.0640   45.7400 H       1  ZINC001098311495    0.0800
     44 H44        -0.9919    3.4072   44.5103 H       1  ZINC001098311495    0.0500
     45 H45         0.7670    3.2801   44.2685 H       1  ZINC001098311495    0.0800
     46 H46         0.1628    5.6544   45.9669 H       1  ZINC001098311495    0.1100
     47 H47        -0.7390    7.8305   44.0348 H       1  ZINC001098311495    0.0700
     48 H48         0.7821    7.7609   43.1129 H       1  ZINC001098311495    0.0600
     49 H49         0.8127    7.6581   44.8896 H       1  ZINC001098311495    0.0600
     50 H50         1.0489    4.8909   42.2561 H       1  ZINC001098311495    0.0700
     51 H51        -0.6044    4.3478   42.6298 H       1  ZINC001098311495    0.0600
     52 H52        -0.3424    5.9151   41.8278 H       1  ZINC001098311495    0.0600
@<TRIPOS>BOND
     1     1     2    1
     2     1    28    1
     3     1    29    1
     4     1    30    1
     5     2     3    1
     6     2    31    1
     7     2    32    1
     8     3     4    1
     9     4     9   ar
    10     4     5   ar
    11     5     6   ar
    12     5    33    1
    13     6     7   ar
    14     6    34    1
    15     7     8   ar
    16     7    35    1
    17     8     9   ar
    18     8    36    1
    19     9    10    1
    20    10    11    2
    21    10    12   am
    22    12    13    1
    23    12    37    1
    24    13    14    1
    25    13    20    1
    26    13    15    1
    27    15    16    1
    28    15    38    1
    29    15    39    1
    30    16    17    1
    31    16    22    1
    32    16    18    1
    33    18    19    1
    34    18    40    1
    35    18    41    1
    36    19    20    1
    37    19    42    1
    38    19    43    1
    39    20    21    1
    40    20    22    1
    41    22    23    1
    42    23    24    1
    43    23    44    1
    44    23    45    1
    45    24    25    2
    46    24    46    1
    47    25    26    1
    48    25    27    1
    49    26    47    1
    50    26    48    1
    51    26    49    1
    52    27    50    1
    53    27    51    1
    54    27    52    1
@<TRIPOS>SUBSTRUCTURE
     1 ZINC001098311495        1 TEMP              0 ****  ****    0 ROOT


##########                                Name:    ZINC000187810810
##########                DOCK_Rotatable_Bonds:                   7
##########                         Heavy_Atoms:                  27
##########                    Molecular_Weight:             386.414
##########                DOCK_Rotatable_Bonds:                   7
##########                       Formal_Charge:           0.0599998
##########                     HBond_Acceptors:                   8
##########                        HBond_Donors:                   1
##########                         Heavy_Atoms:                  27
##########                          Grid_Score:          -31.307060
##########                     Grid_vdw_energy:          -30.348541
##########                      Grid_es_energy:           -0.958519
##########           Internal_energy_repulsive:           51.064453

@<TRIPOS>MOLECULE
ZINC000187810810
 52 53 1 0 0
SMALL
USER_CHARGES


@<TRIPOS>ATOM
      1 C1          1.3832    0.9407   45.0872 C.3     1  ZINC000187810810   -0.1800
      2 C2          0.4938    2.1032   45.5330 C.3     1  ZINC000187810810    0.1400
      3 C3          0.4040    3.1370   44.4087 C.3     1  ZINC000187810810   -0.1800
      4 C4         -0.9065    1.5788   45.8568 C.3     1  ZINC000187810810   -0.1400
      5 O5          1.0641    2.7229   46.7158 O.3     1  ZINC000187810810   -0.3600
      6 C6          1.1614    1.9584   47.8198 C.2     1  ZINC000187810810    0.6500
      7 O7          2.0517    1.1367   47.9133 O.2     1  ZINC000187810810   -0.5600
      8 N8          0.2713    2.1045   48.8212 N.am    1  ZINC000187810810   -0.6000
      9 C9         -0.8153    3.0882   48.7194 C.3     1  ZINC000187810810    0.1100
     10 C10        -0.7788    3.9930   49.9550 C.3     1  ZINC000187810810   -0.1400
     11 C11        -0.8297    3.1285   51.2170 C.3     1  ZINC000187810810    0.1800
     12 C12        -0.8283    4.0303   52.4529 C.3     1  ZINC000187810810   -0.1600
     13 N13        -2.0506    2.3189   51.2049 N.am    1  ZINC000187810810   -0.7100
     14 C14        -3.2567    2.9189   51.1621 C.2     1  ZINC000187810810    0.5500
     15 O15        -3.3315    4.1318   51.1350 O.2     1  ZINC000187810810   -0.5100
     16 C16        -4.4888    2.1018   51.1482 C.ar    1  ZINC000187810810   -0.0900
     17 C17        -4.5525    0.9430   50.3731 C.ar    1  ZINC000187810810   -0.0900
     18 C18        -5.7053    0.1847   50.3649 C.ar    1  ZINC000187810810   -0.0900
     19 C19        -6.7964    0.5711   51.1225 C.ar    1  ZINC000187810810   -0.0900
     20 C20        -6.7399    1.7192   51.8930 C.ar    1  ZINC000187810810   -0.0800
     21 C21        -5.5914    2.4829   51.9149 C.ar    1  ZINC000187810810   -0.1300
     22 C22        -5.5314    3.7327   52.7547 C.3     1  ZINC000187810810    0.5200
     23 F23        -6.6161    3.7535   53.6381 F       1  ZINC000187810810   -0.1800
     24 F24        -4.3368    3.7485   53.4828 F       1  ZINC000187810810   -0.1600
     25 F25        -5.5856    4.8565   51.9232 F       1  ZINC000187810810   -0.1600
     26 C26         0.3921    2.2077   51.2562 C.3     1  ZINC000187810810   -0.1500
     27 C27         0.3655    1.2788   50.0329 C.3     1  ZINC000187810810    0.1300
     28 H28         2.3809    1.3143   44.8564 H       1  ZINC000187810810    0.0900
     29 H29         1.4472    0.2043   45.8882 H       1  ZINC000187810810    0.0600
     30 H30         0.9551    0.4755   44.1993 H       1  ZINC000187810810    0.0700
     31 H31        -0.0241    2.6718   43.5208 H       1  ZINC000187810810    0.0700
     32 H32        -0.2297    3.9650   44.7262 H       1  ZINC000187810810    0.0600
     33 H33         1.4016    3.5105   44.1779 H       1  ZINC000187810810    0.0900
     34 H34        -0.8425    0.8424   46.6579 H       1  ZINC000187810810    0.0700
     35 H35        -1.5401    2.4069   46.1744 H       1  ZINC000187810810    0.0700
     36 H36        -1.3346    1.1136   44.9689 H       1  ZINC000187810810    0.0800
     37 H37        -0.6798    3.6907   47.8212 H       1  ZINC000187810810    0.1000
     38 H38        -1.7736    2.5707   48.6736 H       1  ZINC000187810810    0.0700
     39 H39         0.1414    4.5771   49.9511 H       1  ZINC000187810810    0.0900
     40 H40        -1.6369    4.6648   49.9395 H       1  ZINC000187810810    0.0900
     41 H41        -1.6990    4.6854   52.4257 H       1  ZINC000187810810    0.0600
     42 H42        -0.8645    3.4148   53.3518 H       1  ZINC000187810810    0.0800
     43 H43         0.0798    4.6331   52.4618 H       1  ZINC000187810810    0.0700
     44 H44        -1.9909    1.3510   51.2278 H       1  ZINC000187810810    0.4000
     45 H45        -3.7016    0.6407   49.7807 H       1  ZINC000187810810    0.1400
     46 H46        -5.7559   -0.7122   49.7655 H       1  ZINC000187810810    0.1400
     47 H47        -7.6964   -0.0257   51.1123 H       1  ZINC000187810810    0.1400
     48 H48        -7.5953    2.0155   52.4818 H       1  ZINC000187810810    0.1500
     49 H49         1.3013    2.8087   51.2400 H       1  ZINC000187810810    0.0800
     50 H50         0.3673    1.6089   52.1667 H       1  ZINC000187810810    0.1000
     51 H51        -0.4966    0.6148   50.0969 H       1  ZINC000187810810    0.0700
     52 H52         1.2818    0.6894   50.0016 H       1  ZINC000187810810    0.1000
@<TRIPOS>BOND
     1     1     2    1
     2     1    28    1
     3     1    29    1
     4     1    30    1
     5     2     3    1
     6     2     4    1
     7     2     5    1
     8     3    31    1
     9     3    32    1
    10     3    33    1
    11     4    34    1
    12     4    35    1
    13     4    36    1
    14     5     6    1
    15     6     7    2
    16     6     8   am
    17     8    27    1
    18     8     9    1
    19     9    10    1
    20     9    37    1
    21     9    38    1
    22    10    11    1
    23    10    39    1
    24    10    40    1
    25    11    12    1
    26    11    13    1
    27    11    26    1
    28    12    41    1
    29    12    42    1
    30    12    43    1
    31    13    14   am
    32    13    44    1
    33    14    15    2
    34    14    16    1
    35    16    21   ar
    36    16    17   ar
    37    17    18   ar
    38    17    45    1
    39    18    19   ar
    40    18    46    1
    41    19    20   ar
    42    19    47    1
    43    20    21   ar
    44    20    48    1
    45    21    22    1
    46    22    23    1
    47    22    24    1
    48    22    25    1
    49    26    27    1
    50    26    49    1
    51    26    50    1
    52    27    51    1
    53    27    52    1
@<TRIPOS>SUBSTRUCTURE
     1 ZINC000187810810        1 TEMP              0 ****  ****    0 ROOT


##########                                Name:    ZINC000279331220
##########                DOCK_Rotatable_Bonds:                   9
##########                         Heavy_Atoms:                  24
##########                    Molecular_Weight:             328.411
##########                DOCK_Rotatable_Bonds:                   9
##########                       Formal_Charge:          -0.0100001
##########                     HBond_Acceptors:                   5
##########                        HBond_Donors:                   0
##########                         Heavy_Atoms:                  24
##########                          Grid_Score:          -31.305109
##########                     Grid_vdw_energy:          -30.838961
##########                      Grid_es_energy:           -0.466149
##########           Internal_energy_repulsive:           19.509640

@<TRIPOS>MOLECULE
ZINC000279331220
 48 49 1 0 0
SMALL
USER_CHARGES


@<TRIPOS>ATOM
      1 C1         -1.2420    2.3715   47.2147 C.3     1  ZINC000279331220   -0.1500
      2 C2         -0.3197    1.1685   47.4213 C.3     1  ZINC000279331220    0.0500
      3 O3         -0.6191    0.5482   48.6733 O.3     1  ZINC000279331220   -0.3000
      4 C4         -0.5881    1.3406   49.7781 C.ar    1  ZINC000279331220    0.1000
      5 C5          0.5781    2.0034   50.1243 C.ar    1  ZINC000279331220   -0.1700
      6 C6          0.6079    2.8092   51.2477 C.ar    1  ZINC000279331220   -0.1200
      7 C7         -0.5240    2.9552   52.0275 C.ar    1  ZINC000279331220   -0.1200
      8 C8         -1.6912    2.2961   51.6877 C.ar    1  ZINC000279331220   -0.1700
      9 C9         -1.7296    1.4923   50.5601 C.ar    1  ZINC000279331220    0.1000
     10 O10        -2.8766    0.8434   50.2246 O.3     1  ZINC000279331220   -0.3000
     11 C11        -4.0725    1.2529   50.8910 C.3     1  ZINC000279331220    0.0600
     12 C12        -5.2606    0.4637   50.3378 C.3     1  ZINC000279331220   -0.1100
     13 C13        -6.5317    0.8601   51.0914 C.3     1  ZINC000279331220   -0.1300
     14 C14        -6.9878    2.2193   50.6270 C.2     1  ZINC000279331220    0.5200
     15 O15        -6.4346    2.7577   49.6917 O.2     1  ZINC000279331220   -0.5200
     16 N16        -8.0104    2.8366   51.2511 N.am    1  ZINC000279331220   -0.5700
     17 C17        -8.4548    4.1572   50.7984 C.3     1  ZINC000279331220    0.0800
     18 C18        -8.6454    2.2186   52.3274 C.ar    1  ZINC000279331220    0.3400
     19 N19        -9.6342    1.3677   52.1047 N.ar    1  ZINC000279331220   -0.4800
     20 C20       -10.2616    0.7614   53.0943 C.ar    1  ZINC000279331220    0.1100
     21 C21        -9.9052    0.9955   54.4076 C.ar    1  ZINC000279331220   -0.1600
     22 C22        -8.8725    1.8815   54.6839 C.ar    1  ZINC000279331220   -0.0700
     23 C23        -8.2301    2.4976   53.6246 C.ar    1  ZINC000279331220   -0.1200
     24 C24        -7.1032    3.4665   53.8741 C.3     1  ZINC000279331220   -0.1100
     25 H25        -1.0137    2.8446   46.2597 H       1  ZINC000279331220    0.0800
     26 H26        -2.2798    2.0381   47.2160 H       1  ZINC000279331220    0.0700
     27 H27        -1.0898    3.0888   48.0211 H       1  ZINC000279331220    0.0700
     28 H28        -0.4719    0.4511   46.6149 H       1  ZINC000279331220    0.0600
     29 H29         0.7182    1.5018   47.4200 H       1  ZINC000279331220    0.0600
     30 H30         1.4640    1.8904   49.5171 H       1  ZINC000279331220    0.1300
     31 H31         1.5176    3.3253   51.5167 H       1  ZINC000279331220    0.1300
     32 H32        -0.4965    3.5852   52.9043 H       1  ZINC000279331220    0.1300
     33 H33        -2.5740    2.4114   52.2990 H       1  ZINC000279331220    0.1300
     34 H34        -3.9760    1.0629   51.9600 H       1  ZINC000279331220    0.0600
     35 H35        -4.2346    2.3179   50.7246 H       1  ZINC000279331220    0.0600
     36 H36        -5.3825    0.6858   49.2777 H       1  ZINC000279331220    0.0800
     37 H37        -5.0796   -0.6035   50.4669 H       1  ZINC000279331220    0.0800
     38 H38        -7.3143    0.1274   50.8945 H       1  ZINC000279331220    0.1000
     39 H39        -6.3248    0.8922   52.1611 H       1  ZINC000279331220    0.1000
     40 H40        -9.1596    4.0408   49.9751 H       1  ZINC000279331220    0.0700
     41 H41        -8.9417    4.6789   51.6224 H       1  ZINC000279331220    0.0800
     42 H42        -7.5940    4.7342   50.4609 H       1  ZINC000279331220    0.0800
     43 H43       -11.0645    0.0734   52.8745 H       1  ZINC000279331220    0.1600
     44 H44       -10.4245    0.4950   55.2114 H       1  ZINC000279331220    0.1400
     45 H45        -8.5746    2.0819   55.7025 H       1  ZINC000279331220    0.1400
     46 H46        -6.1504    2.9416   53.8038 H       1  ZINC000279331220    0.0800
     47 H47        -7.1359    4.2614   53.1291 H       1  ZINC000279331220    0.0700
     48 H48        -7.2080    3.8971   54.8699 H       1  ZINC000279331220    0.0700
@<TRIPOS>BOND
     1     1     2    1
     2     1    25    1
     3     1    26    1
     4     1    27    1
     5     2     3    1
     6     2    28    1
     7     2    29    1
     8     3     4    1
     9     4     9   ar
    10     4     5   ar
    11     5     6   ar
    12     5    30    1
    13     6     7   ar
    14     6    31    1
    15     7     8   ar
    16     7    32    1
    17     8     9   ar
    18     8    33    1
    19     9    10    1
    20    10    11    1
    21    11    12    1
    22    11    34    1
    23    11    35    1
    24    12    13    1
    25    12    36    1
    26    12    37    1
    27    13    14    1
    28    13    38    1
    29    13    39    1
    30    14    15    2
    31    14    16   am
    32    16    17    1
    33    16    18    1
    34    17    40    1
    35    17    41    1
    36    17    42    1
    37    18    23   ar
    38    18    19   ar
    39    19    20   ar
    40    20    21   ar
    41    20    43    1
    42    21    22   ar
    43    21    44    1
    44    22    23   ar
    45    22    45    1
    46    23    24    1
    47    24    46    1
    48    24    47    1
    49    24    48    1
@<TRIPOS>SUBSTRUCTURE
     1 ZINC000279331220        1 TEMP              0 ****  ****    0 ROOT


##########                                Name:    ZINC000929592477
##########                DOCK_Rotatable_Bonds:                   7
##########                         Heavy_Atoms:                  28
##########                    Molecular_Weight:             399.517
##########                DOCK_Rotatable_Bonds:                   7
##########                       Formal_Charge:         -8.9407e-08
##########                     HBond_Acceptors:                   8
##########                        HBond_Donors:                   3
##########                         Heavy_Atoms:                  28
##########                          Grid_Score:          -31.279074
##########                     Grid_vdw_energy:          -27.692596
##########                      Grid_es_energy:           -3.586477
##########           Internal_energy_repulsive:           14.167733

@<TRIPOS>MOLECULE
ZINC000929592477
 53 56 1 0 0
SMALL
USER_CHARGES


@<TRIPOS>ATOM
      1 O1         -1.9639    4.7579   55.0239 O.2     1  ZINC000929592477   -0.5700
      2 C2         -3.0284    5.0126   55.5536 C.2     1  ZINC000929592477    0.7100
      3 N3         -3.1309    5.0059   56.8974 N.am    1  ZINC000929592477   -0.6800
      4 C4         -2.0118    4.6997   57.6844 C.ar    1  ZINC000929592477    0.1600
      5 C5         -1.5295    5.6288   58.5966 C.ar    1  ZINC000929592477   -0.1300
      6 C6         -0.4273    5.3279   59.3714 C.ar    1  ZINC000929592477   -0.0800
      7 C7          0.1992    4.0949   59.2387 C.ar    1  ZINC000929592477   -0.1000
      8 S8          1.6055    3.7099   60.2278 S.3     1  ZINC000929592477   -0.1100
      9 C9          1.8281    1.9318   59.9463 C.3     1  ZINC000929592477   -0.0800
     10 C10         3.1315    1.4352   60.6196 C.3     1  ZINC000929592477   -0.1200
     11 C11         2.8603   -0.0770   60.8159 C.3     1  ZINC000929592477   -0.1200
     12 C12         1.3678   -0.1469   61.1997 C.3     1  ZINC000929592477   -0.1200
     13 C13         0.7114    1.1303   60.6467 C.3     1  ZINC000929592477   -0.1000
     14 C14        -0.2841    3.1652   58.3262 C.ar    1  ZINC000929592477   -0.1200
     15 C15        -1.3895    3.4651   57.5555 C.ar    1  ZINC000929592477   -0.1000
     16 N16        -4.1042    5.3070   54.7970 N.am    1  ZINC000929592477   -0.7300
     17 C17        -3.9927    5.3143   53.3363 C.3     1  ZINC000929592477    0.1500
     18 H18        -3.1232    5.8905   53.0202 H       1  ZINC000929592477    0.1200
     19 C19        -5.2871    5.8745   52.6898 C.3     1  ZINC000929592477   -0.1400
     20 C20        -6.1976    4.6212   52.6806 C.3     1  ZINC000929592477    0.1100
     21 N21        -5.2904    3.4977   52.3842 N.pl3   1  ZINC000929592477   -0.6000
     22 C22        -5.6594    2.2930   51.8215 C.2     1  ZINC000929592477    0.4600
     23 C23        -4.7193    1.5092   51.1734 C.2     1  ZINC000929592477   -0.4000
     24 C24        -5.1352    0.2924   50.6155 C.2     1  ZINC000929592477    0.5300
     25 O25        -4.3402   -0.4301   50.0356 O.2     1  ZINC000929592477   -0.5500
     26 N26        -6.4312   -0.0653   50.7318 N.am    1  ZINC000929592477   -0.6400
     27 C27        -7.3033    0.7374   51.3738 C.2     1  ZINC000929592477    0.4100
     28 N28        -6.9307    1.8701   51.9032 N.2     1  ZINC000929592477   -0.5700
     29 C29        -3.9223    3.8738   52.7869 C.3     1  ZINC000929592477    0.1100
     30 H30        -3.9791    5.2131   57.3201 H       1  ZINC000929592477    0.4100
     31 H31        -2.0164    6.5872   58.6996 H       1  ZINC000929592477    0.1300
     32 H32        -0.0518    6.0509   60.0803 H       1  ZINC000929592477    0.1300
     33 H33         1.8412    1.7142   58.8783 H       1  ZINC000929592477    0.1000
     34 H34         3.9886    1.5921   59.9646 H       1  ZINC000929592477    0.0700
     35 H35         3.2825    1.9285   61.5799 H       1  ZINC000929592477    0.0800
     36 H36         3.0417   -0.6207   59.8887 H       1  ZINC000929592477    0.0700
     37 H37         3.4799   -0.4745   61.6198 H       1  ZINC000929592477    0.0700
     38 H38         0.9077   -1.0274   60.7510 H       1  ZINC000929592477    0.0700
     39 H39         1.2622   -0.1815   62.2840 H       1  ZINC000929592477    0.0700
     40 H40         0.2874    1.7155   61.4627 H       1  ZINC000929592477    0.0700
     41 H41        -0.0670    0.8696   59.9297 H       1  ZINC000929592477    0.0800
     42 H42         0.2025    2.2066   58.2228 H       1  ZINC000929592477    0.1300
     43 H43        -1.7655    2.7424   56.8464 H       1  ZINC000929592477    0.1400
     44 H44        -4.9523    5.5140   55.2198 H       1  ZINC000929592477    0.4000
     45 H45        -5.7185    6.6664   53.3020 H       1  ZINC000929592477    0.0900
     46 H46        -5.0966    6.2264   51.6759 H       1  ZINC000929592477    0.0900
     47 H47        -6.6647    4.4846   53.6559 H       1  ZINC000929592477    0.0700
     48 H48        -6.9575    4.7101   51.9042 H       1  ZINC000929592477    0.0800
     49 H49        -3.6901    1.8280   51.0995 H       1  ZINC000929592477    0.1500
     50 H50        -6.7367   -0.9037   50.3514 H       1  ZINC000929592477    0.4200
     51 H51        -8.3363    0.4331   51.4557 H       1  ZINC000929592477    0.2100
     52 H52        -3.2580    3.8357   51.9236 H       1  ZINC000929592477    0.0900
     53 H53        -3.5648    3.1967   53.5626 H       1  ZINC000929592477    0.0800
@<TRIPOS>BOND
     1     1     2    2
     2     2     3   am
     3     2    16   am
     4     3     4    1
     5     3    30    1
     6     4    15   ar
     7     4     5   ar
     8     5     6   ar
     9     5    31    1
    10     6     7   ar
    11     6    32    1
    12     7     8    1
    13     7    14   ar
    14     8     9    1
    15     9    13    1
    16     9    10    1
    17     9    33    1
    18    10    11    1
    19    10    34    1
    20    10    35    1
    21    11    12    1
    22    11    36    1
    23    11    37    1
    24    12    13    1
    25    12    38    1
    26    12    39    1
    27    13    40    1
    28    13    41    1
    29    14    15   ar
    30    14    42    1
    31    15    43    1
    32    16    17    1
    33    16    44    1
    34    17    18    1
    35    17    29    1
    36    17    19    1
    37    19    20    1
    38    19    45    1
    39    19    46    1
    40    20    21    1
    41    20    47    1
    42    20    48    1
    43    21    22    1
    44    21    29    1
    45    22    28    1
    46    22    23    2
    47    23    24    1
    48    23    49    1
    49    24    25    2
    50    24    26   am
    51    26    27    1
    52    26    50    1
    53    27    28    2
    54    27    51    1
    55    29    52    1
    56    29    53    1
@<TRIPOS>SUBSTRUCTURE
     1 ZINC000929592477        1 TEMP              0 ****  ****    0 ROOT


##########                                Name:    ZINC000750807956
##########                DOCK_Rotatable_Bonds:                  11
##########                         Heavy_Atoms:                  26
##########                    Molecular_Weight:             368.473
##########                DOCK_Rotatable_Bonds:                  11
##########                       Formal_Charge:        -8.12113e-07
##########                     HBond_Acceptors:                   7
##########                        HBond_Donors:                   1
##########                         Heavy_Atoms:                  26
##########                          Grid_Score:          -31.278593
##########                     Grid_vdw_energy:          -31.176620
##########                      Grid_es_energy:           -0.101973
##########           Internal_energy_repulsive:           96.025566

@<TRIPOS>MOLECULE
ZINC000750807956
 58 59 1 0 0
SMALL
USER_CHARGES


@<TRIPOS>ATOM
      1 C1         -3.4177    4.3671   55.9987 C.3     1  ZINC000750807956   -0.1500
      2 C2         -4.1524    4.8687   54.7538 C.3     1  ZINC000750807956    0.0700
      3 O3         -3.7787    4.0555   53.6105 O.3     1  ZINC000750807956   -0.3600
      4 C4         -4.2840    4.4106   52.4188 C.2     1  ZINC000750807956    0.4800
      5 O5         -4.0997    5.5261   51.9927 O.2     1  ZINC000750807956   -0.4900
      6 C6         -5.0812    3.4181   51.6123 C.3     1  ZINC000750807956    0.1600
      7 H7         -5.7274    3.9498   50.9139 H       1  ZINC000750807956    0.1000
      8 C8         -5.9356    2.5613   52.5518 C.3     1  ZINC000750807956   -0.1300
      9 C9         -6.6350    1.4666   51.7427 C.3     1  ZINC000750807956   -0.1200
     10 C10        -5.5861    0.5655   51.0871 C.3     1  ZINC000750807956   -0.1400
     11 C11        -4.7277    1.3998   50.1310 C.3     1  ZINC000750807956    0.1100
     12 N12        -4.1673    2.5412   50.8678 N.am    1  ZINC000750807956   -0.6100
     13 C13        -2.8401    2.7756   50.8646 C.2     1  ZINC000750807956    0.5100
     14 O14        -2.3899    3.7210   51.4766 O.2     1  ZINC000750807956   -0.5000
     15 C15        -1.9155    1.8632   50.1006 C.3     1  ZINC000750807956   -0.1400
     16 C16        -0.5579    2.5459   49.9223 C.3     1  ZINC000750807956    0.2100
     17 H17        -0.7078    3.6088   49.7334 H       1  ZINC000750807956    0.1000
     18 N18         0.1467    1.9429   48.7883 N.am    1  ZINC000750807956   -0.7000
     19 C19         0.0289    2.4813   47.5584 C.2     1  ZINC000750807956    0.6600
     20 O20        -0.6605    3.4677   47.3903 O.2     1  ZINC000750807956   -0.5600
     21 O21         0.6752    1.9262   46.5158 O.3     1  ZINC000750807956   -0.3700
     22 C22         0.5446    2.5892   45.2306 C.3     1  ZINC000750807956    0.1400
     23 C23         1.3718    1.8400   44.1839 C.3     1  ZINC000750807956   -0.1800
     24 C24        -0.9258    2.5974   44.8079 C.3     1  ZINC000750807956   -0.1400
     25 C25         1.0503    4.0285   45.3456 C.3     1  ZINC000750807956   -0.1800
     26 C26         0.2741    2.3662   51.1937 C.3     1  ZINC000750807956   -0.1800
     27 C27         1.4037    1.3348   51.1588 C.3     1  ZINC000750807956   -0.1700
     28 C28         1.7318    2.8293   51.1553 C.3     1  ZINC000750807956   -0.1800
     29 H29        -2.3418    4.4378   55.8386 H       1  ZINC000750807956    0.0600
     30 H30        -3.6983    4.9776   56.8569 H       1  ZINC000750807956    0.0800
     31 H31        -3.6896    3.3285   56.1871 H       1  ZINC000750807956    0.0700
     32 H32        -5.2283    4.7981   54.9139 H       1  ZINC000750807956    0.0700
     33 H33        -3.8805    5.9074   54.5654 H       1  ZINC000750807956    0.0600
     34 H34        -5.2975    2.1035   53.3077 H       1  ZINC000750807956    0.0800
     35 H35        -6.6831    3.1886   53.0374 H       1  ZINC000750807956    0.0800
     36 H36        -7.2629    0.8706   52.4050 H       1  ZINC000750807956    0.0800
     37 H37        -7.2537    1.9247   50.9710 H       1  ZINC000750807956    0.0700
     38 H38        -4.9513    0.1264   51.8568 H       1  ZINC000750807956    0.0700
     39 H39        -6.0847   -0.2277   50.5301 H       1  ZINC000750807956    0.0800
     40 H40        -3.9179    0.7858   49.7369 H       1  ZINC000750807956    0.0900
     41 H41        -5.3449    1.7649   49.3101 H       1  ZINC000750807956    0.0800
     42 H42        -1.7847    0.9330   50.6533 H       1  ZINC000750807956    0.1200
     43 H43        -2.3449    1.6473   49.1222 H       1  ZINC000750807956    0.1100
     44 H44         0.6981    1.1562   48.9226 H       1  ZINC000750807956    0.4000
     45 H45         1.0116    0.8146   44.1020 H       1  ZINC000750807956    0.0600
     46 H46         1.2739    2.3378   43.2192 H       1  ZINC000750807956    0.0700
     47 H47         2.4194    1.8342   44.4850 H       1  ZINC000750807956    0.0900
     48 H48        -1.5152    3.1311   45.5536 H       1  ZINC000750807956    0.0700
     49 H49        -1.0239    3.0951   43.8432 H       1  ZINC000750807956    0.0800
     50 H50        -1.2861    1.5719   44.7261 H       1  ZINC000750807956    0.0700
     51 H51         2.0979    4.0228   45.6466 H       1  ZINC000750807956    0.0900
     52 H52         0.9523    4.5263   44.3808 H       1  ZINC000750807956    0.0700
     53 H53         0.4610    4.5623   46.0912 H       1  ZINC000750807956    0.0600
     54 H54        -0.2681    2.4878   52.1315 H       1  ZINC000750807956    0.1100
     55 H55         1.6048    0.7776   52.0737 H       1  ZINC000750807956    0.0900
     56 H56         1.5541    0.7844   50.2301 H       1  ZINC000750807956    0.0900
     57 H57         2.0981    3.2619   50.2242 H       1  ZINC000750807956    0.1200
     58 H58         2.1488    3.2551   52.0679 H       1  ZINC000750807956    0.0900
@<TRIPOS>BOND
     1     1     2    1
     2     1    29    1
     3     1    30    1
     4     1    31    1
     5     2     3    1
     6     2    32    1
     7     2    33    1
     8     3     4    1
     9     4     5    2
    10     4     6    1
    11     6     7    1
    12     6    12    1
    13     6     8    1
    14     8     9    1
    15     8    34    1
    16     8    35    1
    17     9    10    1
    18     9    36    1
    19     9    37    1
    20    10    11    1
    21    10    38    1
    22    10    39    1
    23    11    12    1
    24    11    40    1
    25    11    41    1
    26    12    13   am
    27    13    14    2
    28    13    15    1
    29    15    16    1
    30    15    42    1
    31    15    43    1
    32    16    17    1
    33    16    18    1
    34    16    26    1
    35    18    19   am
    36    18    44    1
    37    19    20    2
    38    19    21    1
    39    21    22    1
    40    22    23    1
    41    22    24    1
    42    22    25    1
    43    23    45    1
    44    23    46    1
    45    23    47    1
    46    24    48    1
    47    24    49    1
    48    24    50    1
    49    25    51    1
    50    25    52    1
    51    25    53    1
    52    26    28    1
    53    26    27    1
    54    26    54    1
    55    27    28    1
    56    27    55    1
    57    27    56    1
    58    28    57    1
    59    28    58    1
@<TRIPOS>SUBSTRUCTURE
     1 ZINC000750807956        1 TEMP              0 ****  ****    0 ROOT


##########                                Name:    ZINC000863246516
##########                DOCK_Rotatable_Bonds:                   5
##########                         Heavy_Atoms:                  25
##########                    Molecular_Weight:             356.489
##########                DOCK_Rotatable_Bonds:                   5
##########                       Formal_Charge:         -0.00999938
##########                     HBond_Acceptors:                   5
##########                        HBond_Donors:                   0
##########                         Heavy_Atoms:                  25
##########                          Grid_Score:          -31.239975
##########                     Grid_vdw_energy:          -32.035568
##########                      Grid_es_energy:            0.795592
##########           Internal_energy_repulsive:           16.335138

@<TRIPOS>MOLECULE
ZINC000863246516
 49 52 1 0 0
SMALL
USER_CHARGES


@<TRIPOS>ATOM
      1 C1         -9.3699    1.8932   54.5978 C.3     1  ZINC000863246516   -0.0600
      2 C2         -8.4659    1.7525   53.4002 C.2     1  ZINC000863246516   -0.2000
      3 C3         -7.3834    2.4654   53.1218 C.2     1  ZINC000863246516    0.0900
      4 C4         -6.9065    3.5673   54.0324 C.3     1  ZINC000863246516   -0.1000
      5 N5         -6.7227    2.1521   51.9714 N.am    1  ZINC000863246516   -0.5300
      6 C6         -5.5144    2.8738   51.5648 C.3     1  ZINC000863246516    0.1200
      7 C7         -4.4184    1.8698   51.2022 C.3     1  ZINC000863246516   -0.1500
      8 C8         -3.0718    2.4467   51.5557 C.2     1  ZINC000863246516    0.5400
      9 O9         -2.9590    3.1795   52.5155 O.2     1  ZINC000863246516   -0.5300
     10 N10        -1.9928    2.1484   50.8052 N.am    1  ZINC000863246516   -0.6100
     11 C11        -0.6317    2.6427   51.0418 C.3     1  ZINC000863246516    0.1100
     12 C12         0.3190    1.7129   50.2641 C.3     1  ZINC000863246516   -0.1300
     13 H13         0.8402    0.9685   50.8658 H       1  ZINC000863246516    0.1000
     14 C14         1.1615    2.4543   49.2128 C.3     1  ZINC000863246516   -0.1200
     15 C15        -0.0861    2.4508   48.3147 C.3     1  ZINC000863246516   -0.0600
     16 H16        -0.7300    3.3183   48.4596 H       1  ZINC000863246516    0.1000
     17 C17         0.2173    2.1840   46.8628 C.ar    1  ZINC000863246516   -0.0700
     18 C18        -0.3052    3.0093   45.8846 C.ar    1  ZINC000863246516   -0.1200
     19 C19        -0.0270    2.7646   44.5529 C.ar    1  ZINC000863246516   -0.1200
     20 C20         0.7740    1.6949   44.1992 C.ar    1  ZINC000863246516   -0.1200
     21 C21         1.2972    0.8702   45.1775 C.ar    1  ZINC000863246516   -0.1200
     22 C22         1.0225    1.1174   46.5096 C.ar    1  ZINC000863246516   -0.1200
     23 C23        -0.5554    1.1909   49.0968 C.3     1  ZINC000863246516   -0.1100
     24 H24        -0.2732    0.2309   48.6644 H       1  ZINC000863246516    0.1200
     25 C25        -1.9942    1.2740   49.6279 C.3     1  ZINC000863246516    0.1200
     26 C26        -7.2249    1.1544   51.2266 C.2     1  ZINC000863246516    0.4800
     27 O27        -6.7823    0.7295   50.1741 O.2     1  ZINC000863246516   -0.4700
     28 S28        -8.6191    0.5940   52.0679 S.3     1  ZINC000863246516    0.0100
     29 H29       -10.1701    1.1556   54.5376 H       1  ZINC000863246516    0.0700
     30 H30        -8.7939    1.7309   55.5088 H       1  ZINC000863246516    0.0800
     31 H31        -9.7995    2.8949   54.6130 H       1  ZINC000863246516    0.0800
     32 H32        -7.5771    3.6473   54.8880 H       1  ZINC000863246516    0.0900
     33 H33        -5.8988    3.3404   54.3806 H       1  ZINC000863246516    0.0800
     34 H34        -6.8986    4.5112   53.4875 H       1  ZINC000863246516    0.0800
     35 H35        -5.7375    3.4968   50.6987 H       1  ZINC000863246516    0.1000
     36 H36        -5.1733    3.5031   52.3868 H       1  ZINC000863246516    0.1000
     37 H37        -4.5746    0.9450   51.7577 H       1  ZINC000863246516    0.1000
     38 H38        -4.4553    1.6620   50.1328 H       1  ZINC000863246516    0.1000
     39 H39        -0.5368    3.6647   50.6745 H       1  ZINC000863246516    0.0700
     40 H40        -0.4012    2.6057   52.1065 H       1  ZINC000863246516    0.0800
     41 H41         1.4703    3.4516   49.5259 H       1  ZINC000863246516    0.0800
     42 H42         1.9853    1.8606   48.8167 H       1  ZINC000863246516    0.0900
     43 H43        -0.9310    3.8450   46.1608 H       1  ZINC000863246516    0.1200
     44 H44        -0.4358    3.4090   43.7885 H       1  ZINC000863246516    0.1200
     45 H45         0.9907    1.5033   43.1587 H       1  ZINC000863246516    0.1200
     46 H46         1.9226    0.0342   44.9013 H       1  ZINC000863246516    0.1200
     47 H47         1.4312    0.4730   47.2739 H       1  ZINC000863246516    0.1200
     48 H48        -2.3479    0.2772   49.8916 H       1  ZINC000863246516    0.0700
     49 H49        -2.6437    1.7061   48.8666 H       1  ZINC000863246516    0.0700
@<TRIPOS>BOND
     1     1     2    1
     2     1    29    1
     3     1    30    1
     4     1    31    1
     5     2    28    1
     6     2     3    2
     7     3     4    1
     8     3     5    1
     9     4    32    1
    10     4    33    1
    11     4    34    1
    12     5     6    1
    13     5    26   am
    14     6     7    1
    15     6    35    1
    16     6    36    1
    17     7     8    1
    18     7    37    1
    19     7    38    1
    20     8     9    2
    21     8    10   am
    22    10    25    1
    23    10    11    1
    24    11    12    1
    25    11    39    1
    26    11    40    1
    27    12    13    1
    28    12    23    1
    29    12    14    1
    30    14    15    1
    31    14    41    1
    32    14    42    1
    33    15    16    1
    34    15    17    1
    35    15    23    1
    36    17    22   ar
    37    17    18   ar
    38    18    19   ar
    39    18    43    1
    40    19    20   ar
    41    19    44    1
    42    20    21   ar
    43    20    45    1
    44    21    22   ar
    45    21    46    1
    46    22    47    1
    47    23    24    1
    48    23    25    1
    49    25    48    1
    50    25    49    1
    51    26    27    2
    52    26    28    1
@<TRIPOS>SUBSTRUCTURE
     1 ZINC000863246516        1 TEMP              0 ****  ****    0 ROOT


##########                                Name:    ZINC000433533595
##########                DOCK_Rotatable_Bonds:                  10
##########                         Heavy_Atoms:                  24
##########                    Molecular_Weight:             397.312
##########                DOCK_Rotatable_Bonds:                  10
##########                       Formal_Charge:          0.00999916
##########                     HBond_Acceptors:                   5
##########                        HBond_Donors:                   1
##########                         Heavy_Atoms:                  24
##########                          Grid_Score:          -31.238972
##########                     Grid_vdw_energy:          -28.644667
##########                      Grid_es_energy:           -2.594306
##########           Internal_energy_repulsive:           15.737300

@<TRIPOS>MOLECULE
ZINC000433533595
 49 50 1 0 0
SMALL
USER_CHARGES


@<TRIPOS>ATOM
      1 C1          0.0577    1.4135   46.7981 C.3     1  ZINC000433533595   -0.1500
      2 C2         -0.1230    1.1632   48.2966 C.3     1  ZINC000433533595   -0.1200
      3 C3         -1.4377    1.7910   48.7638 C.3     1  ZINC000433533595   -0.1300
      4 C4         -1.6332    1.5143   50.2557 C.3     1  ZINC000433533595    0.1000
      5 N5         -2.9266    2.0508   50.6865 N.am    1  ZINC000433533595   -0.5500
      6 C6         -4.0285    1.2765   50.6342 C.2     1  ZINC000433533595    0.5100
      7 O7         -3.9493    0.1348   50.2303 O.2     1  ZINC000433533595   -0.5100
      8 C8         -5.3469    1.8233   51.0733 C.2     1  ZINC000433533595    0.5000
      9 O9         -6.0937    2.3316   50.2624 O.2     1  ZINC000433533595   -0.4900
     10 N10        -5.7077    1.7527   52.3700 N.am    1  ZINC000433533595   -0.6300
     11 C11        -6.9426    2.2649   52.7813 C.ar    1  ZINC000433533595    0.1200
     12 C12        -8.1107    1.5676   52.5082 C.ar    1  ZINC000433533595   -0.0600
     13 C13        -9.3302    2.0764   52.9160 C.ar    1  ZINC000433533595   -0.1100
     14 Br14      -10.9213    1.1247   52.5436 Br      1  ZINC000433533595   -0.0400
     15 C15        -9.3888    3.2796   53.5962 C.ar    1  ZINC000433533595   -0.0600
     16 C16        -8.2286    3.9798   53.8717 C.ar    1  ZINC000433533595   -0.1900
     17 C17        -7.0026    3.4744   53.4718 C.ar    1  ZINC000433533595    0.1300
     18 O18        -5.8611    4.1622   53.7422 O.3     1  ZINC000433533595   -0.3100
     19 C19        -5.6016    4.4754   55.1121 C.3     1  ZINC000433533595    0.0800
     20 C20        -4.6870    3.4074   55.7150 C.3     1  ZINC000433533595   -0.1500
     21 C21        -4.9187    5.8416   55.2022 C.3     1  ZINC000433533595   -0.1800
     22 C22        -3.0222    3.4290   51.1741 C.3     1  ZINC000433533595    0.0600
     23 C23        -2.1865    3.8043   52.3995 C.3     1  ZINC000433533595   -0.1900
     24 C24        -1.7896    4.3215   51.0153 C.3     1  ZINC000433533595   -0.1800
     25 H25         0.0803    2.4868   46.6091 H       1  ZINC000433533595    0.0500
     26 H26         0.9943    0.9662   46.4654 H       1  ZINC000433533595    0.0500
     27 H27        -0.7729    0.9658   46.2523 H       1  ZINC000433533595    0.0500
     28 H28        -0.1455    0.0899   48.4856 H       1  ZINC000433533595    0.0700
     29 H29         0.7076    1.6108   48.8425 H       1  ZINC000433533595    0.0600
     30 H30        -1.4065    2.8674   48.5949 H       1  ZINC000433533595    0.0600
     31 H31        -2.2662    1.3590   48.2025 H       1  ZINC000433533595    0.0700
     32 H32        -1.6090    0.4389   50.4321 H       1  ZINC000433533595    0.1100
     33 H33        -0.8344    1.9933   50.8219 H       1  ZINC000433533595    0.0800
     34 H34        -5.1109    1.3466   53.0180 H       1  ZINC000433533595    0.4300
     35 H35        -8.0676    0.6283   51.9771 H       1  ZINC000433533595    0.1600
     36 H36       -10.3435    3.6734   53.9125 H       1  ZINC000433533595    0.1400
     37 H37        -8.2781    4.9188   54.4028 H       1  ZINC000433533595    0.1500
     38 H38        -6.5417    4.5021   55.6631 H       1  ZINC000433533595    0.0800
     39 H39        -3.7469    3.3808   55.1640 H       1  ZINC000433533595    0.0700
     40 H40        -4.4890    3.6464   56.7599 H       1  ZINC000433533595    0.0800
     41 H41        -5.1734    2.4340   55.6509 H       1  ZINC000433533595    0.0700
     42 H42        -3.9787    5.8150   54.6511 H       1  ZINC000433533595    0.0700
     43 H43        -5.5703    6.6026   54.7726 H       1  ZINC000433533595    0.0600
     44 H44        -4.7207    6.0806   56.2471 H       1  ZINC000433533595    0.0800
     45 H45        -4.0003    3.8982   51.0687 H       1  ZINC000433533595    0.1400
     46 H46        -2.6149    4.5205   53.1007 H       1  ZINC000433533595    0.0900
     47 H47        -1.5656    3.0258   52.8429 H       1  ZINC000433533595    0.1400
     48 H48        -0.9078    3.8833   50.5481 H       1  ZINC000433533595    0.1000
     49 H49        -1.9570    5.3780   50.8059 H       1  ZINC000433533595    0.1000
@<TRIPOS>BOND
     1     1     2    1
     2     1    25    1
     3     1    26    1
     4     1    27    1
     5     2     3    1
     6     2    28    1
     7     2    29    1
     8     3     4    1
     9     3    30    1
    10     3    31    1
    11     4     5    1
    12     4    32    1
    13     4    33    1
    14     5     6   am
    15     5    22    1
    16     6     7    2
    17     6     8    1
    18     8     9    2
    19     8    10   am
    20    10    11    1
    21    10    34    1
    22    11    17   ar
    23    11    12   ar
    24    12    13   ar
    25    12    35    1
    26    13    14    1
    27    13    15   ar
    28    15    16   ar
    29    15    36    1
    30    16    17   ar
    31    16    37    1
    32    17    18    1
    33    18    19    1
    34    19    20    1
    35    19    21    1
    36    19    38    1
    37    20    39    1
    38    20    40    1
    39    20    41    1
    40    21    42    1
    41    21    43    1
    42    21    44    1
    43    22    24    1
    44    22    23    1
    45    22    45    1
    46    23    24    1
    47    23    46    1
    48    23    47    1
    49    24    48    1
    50    24    49    1
@<TRIPOS>SUBSTRUCTURE
     1 ZINC000433533595        1 TEMP              0 ****  ****    0 ROOT


##########                                Name:    ZINC000864730443
##########                DOCK_Rotatable_Bonds:                  10
##########                         Heavy_Atoms:                  25
##########                    Molecular_Weight:             356.462
##########                DOCK_Rotatable_Bonds:                  10
##########                       Formal_Charge:           0.0299988
##########                     HBond_Acceptors:                   7
##########                        HBond_Donors:                   2
##########                         Heavy_Atoms:                  25
##########                          Grid_Score:          -31.236759
##########                     Grid_vdw_energy:          -30.812729
##########                      Grid_es_energy:           -0.424030
##########           Internal_energy_repulsive:           28.077637

@<TRIPOS>MOLECULE
ZINC000864730443
 57 58 1 0 0
SMALL
USER_CHARGES


@<TRIPOS>ATOM
      1 C1         -4.1358    2.9954   51.6031 C.3     1  ZINC000864730443   -0.1800
      2 C2         -5.0720    2.0803   50.8111 C.3     1  ZINC000864730443    0.1400
      3 C3         -5.4446    0.8680   51.6670 C.3     1  ZINC000864730443   -0.1800
      4 C4         -6.3404    2.8494   50.4366 C.3     1  ZINC000864730443   -0.1400
      5 O5         -4.4029    1.6324   49.6028 O.3     1  ZINC000864730443   -0.3600
      6 C6         -3.0703    1.4529   49.6726 C.2     1  ZINC000864730443    0.6500
      7 O7         -2.6005    0.7108   50.5123 O.2     1  ZINC000864730443   -0.5700
      8 N8         -2.2577    2.0961   48.8111 N.am    1  ZINC000864730443   -0.7100
      9 C9         -0.8078    1.8994   48.8859 C.3     1  ZINC000864730443    0.1500
     10 C10        -0.1815    2.1994   47.5226 C.3     1  ZINC000864730443   -0.1300
     11 C11         1.1646    1.5286   47.4283 C.2     1  ZINC000864730443    0.5300
     12 O12         1.2346    0.3242   47.3032 O.2     1  ZINC000864730443   -0.5300
     13 N13         2.2908    2.2670   47.4829 N.am    1  ZINC000864730443   -0.7200
     14 C14         3.5995    1.6149   47.3912 C.3     1  ZINC000864730443    0.1200
     15 C15         4.2892    1.6612   48.7561 C.3     1  ZINC000864730443   -0.1300
     16 C16         3.3874    1.0083   49.8056 C.3     1  ZINC000864730443    0.0800
     17 H17         2.8726    0.1477   49.3785 H       1  ZINC000864730443    0.0800
     18 C18         4.2212    0.5786   51.0389 C.3     1  ZINC000864730443   -0.1500
     19 C19         3.1315    0.5768   52.1454 C.3     1  ZINC000864730443   -0.1600
     20 C20         2.2172    1.7409   51.7068 C.3     1  ZINC000864730443    0.0500
     21 O21         2.4356    1.9602   50.3069 O.3     1  ZINC000864730443   -0.3800
     22 C22        -1.0961    1.6732   46.4122 C.3     1  ZINC000864730443   -0.1000
     23 C23        -0.4978    2.0477   45.0527 C.3     1  ZINC000864730443   -0.1600
     24 C24        -0.3159    3.5662   44.9848 C.3     1  ZINC000864730443    0.0600
     25 O25         0.5193    3.9933   46.0628 O.3     1  ZINC000864730443   -0.3700
     26 C26        -0.0119    3.7121   47.3594 C.3     1  ZINC000864730443    0.0800
     27 H27        -3.2322    2.4474   51.8700 H       1  ZINC000864730443    0.0900
     28 H28        -3.8703    3.8590   50.9935 H       1  ZINC000864730443    0.0600
     29 H29        -4.6380    3.3315   52.5102 H       1  ZINC000864730443    0.0700
     30 H30        -5.9468    1.2042   52.5740 H       1  ZINC000864730443    0.0700
     31 H31        -6.1115    0.2162   51.1027 H       1  ZINC000864730443    0.0600
     32 H32        -4.5408    0.3201   51.9338 H       1  ZINC000864730443    0.0900
     33 H33        -6.0749    3.7131   49.8269 H       1  ZINC000864730443    0.0700
     34 H34        -7.0074    2.1975   49.8724 H       1  ZINC000864730443    0.0700
     35 H35        -6.8426    3.1856   51.3437 H       1  ZINC000864730443    0.0800
     36 H36        -2.6327    2.6895   48.1415 H       1  ZINC000864730443    0.4100
     37 H37        -0.3881    2.5714   49.6344 H       1  ZINC000864730443    0.0900
     38 H38        -0.5952    0.8672   49.1642 H       1  ZINC000864730443    0.0800
     39 H39         2.2349    3.2302   47.5829 H       1  ZINC000864730443    0.4000
     40 H40         3.4674    0.5769   47.0858 H       1  ZINC000864730443    0.0700
     41 H41         4.2137    2.1346   46.6558 H       1  ZINC000864730443    0.0700
     42 H42         5.2350    1.1220   48.7037 H       1  ZINC000864730443    0.0800
     43 H43         4.4771    2.6985   49.0332 H       1  ZINC000864730443    0.0800
     44 H44         4.6426   -0.4171   50.9006 H       1  ZINC000864730443    0.0900
     45 H45         5.0023    1.3067   51.2580 H       1  ZINC000864730443    0.0800
     46 H46         2.5843   -0.3659   52.1494 H       1  ZINC000864730443    0.0800
     47 H47         3.5708    0.7757   53.1229 H       1  ZINC000864730443    0.0800
     48 H48         1.1739    1.4770   51.8799 H       1  ZINC000864730443    0.0700
     49 H49         2.4701    2.6410   52.2671 H       1  ZINC000864730443    0.0700
     50 H50        -1.1763    0.5888   46.4891 H       1  ZINC000864730443    0.0800
     51 H51        -2.0849    2.1212   46.5113 H       1  ZINC000864730443    0.0800
     52 H52         0.4693    1.5592   44.9335 H       1  ZINC000864730443    0.0900
     53 H53        -1.1701    1.7253   44.2576 H       1  ZINC000864730443    0.0800
     54 H54         0.1491    3.8346   44.0363 H       1  ZINC000864730443    0.1000
     55 H55        -1.2882    4.0526   45.0636 H       1  ZINC000864730443    0.0500
     56 H56        -0.9803    4.2004   47.4691 H       1  ZINC000864730443    0.0700
     57 H57         0.6721    4.0856   48.1213 H       1  ZINC000864730443    0.1000
@<TRIPOS>BOND
     1     1     2    1
     2     1    27    1
     3     1    28    1
     4     1    29    1
     5     2     3    1
     6     2     4    1
     7     2     5    1
     8     3    30    1
     9     3    31    1
    10     3    32    1
    11     4    33    1
    12     4    34    1
    13     4    35    1
    14     5     6    1
    15     6     7    2
    16     6     8   am
    17     8     9    1
    18     8    36    1
    19     9    10    1
    20     9    37    1
    21     9    38    1
    22    10    26    1
    23    10    11    1
    24    10    22    1
    25    11    12    2
    26    11    13   am
    27    13    14    1
    28    13    39    1
    29    14    15    1
    30    14    40    1
    31    14    41    1
    32    15    16    1
    33    15    42    1
    34    15    43    1
    35    16    17    1
    36    16    21    1
    37    16    18    1
    38    18    19    1
    39    18    44    1
    40    18    45    1
    41    19    20    1
    42    19    46    1
    43    19    47    1
    44    20    21    1
    45    20    48    1
    46    20    49    1
    47    22    23    1
    48    22    50    1
    49    22    51    1
    50    23    24    1
    51    23    52    1
    52    23    53    1
    53    24    25    1
    54    24    54    1
    55    24    55    1
    56    25    26    1
    57    26    56    1
    58    26    57    1
@<TRIPOS>SUBSTRUCTURE
     1 ZINC000864730443        1 TEMP              0 ****  ****    0 ROOT


##########                                Name:    ZINC000774689801
##########                DOCK_Rotatable_Bonds:                   4
##########                         Heavy_Atoms:                  24
##########                    Molecular_Weight:             347.395
##########                DOCK_Rotatable_Bonds:                   4
##########                       Formal_Charge:         -0.00999961
##########                     HBond_Acceptors:                   8
##########                        HBond_Donors:                   1
##########                         Heavy_Atoms:                  24
##########                          Grid_Score:          -31.233742
##########                     Grid_vdw_energy:          -31.281780
##########                      Grid_es_energy:            0.048039
##########           Internal_energy_repulsive:            4.173348

@<TRIPOS>MOLECULE
ZINC000774689801
 41 44 1 0 0
SMALL
USER_CHARGES


@<TRIPOS>ATOM
      1 C1         -3.3934    3.5362   51.6862 C.3     1  ZINC000774689801   -0.1200
      2 C2         -4.0758    2.2586   51.2696 C.2     1  ZINC000774689801    0.0600
      3 C3         -3.4422    1.3028   50.5711 C.2     1  ZINC000774689801   -0.2800
      4 C4         -2.0460    1.3741   50.1354 C.2     1  ZINC000774689801    0.5500
      5 O5         -1.1711    1.6374   50.9383 O.2     1  ZINC000774689801   -0.4900
      6 O6         -1.7300    1.1475   48.8436 O.3     1  ZINC000774689801   -0.3400
      7 C7         -0.3319    1.2784   48.4743 C.3     1  ZINC000774689801    0.0900
      8 C8         -0.1642    0.9528   46.9888 C.3     1  ZINC000774689801   -0.1300
      9 H9         -0.5529   -0.0420   46.7710 H       1  ZINC000774689801    0.1200
     10 C10        -0.8759    2.0143   46.1184 C.3     1  ZINC000774689801   -0.1300
     11 C11         0.0859    2.1314   44.9152 C.3     1  ZINC000774689801    0.1000
     12 N12         1.4011    1.7248   45.4241 N.am    1  ZINC000774689801   -0.7400
     13 C13         1.2905    1.0527   46.5857 C.2     1  ZINC000774689801    0.5200
     14 O14         2.2212    0.5985   47.2167 O.2     1  ZINC000774689801   -0.5100
     15 S15        -4.5219   -0.0444   50.2536 S.3     1  ZINC000774689801    0.3000
     16 C16        -5.8422    0.7507   51.1025 C.2     1  ZINC000774689801    0.1000
     17 C17        -5.4050    1.9874   51.5884 C.2     1  ZINC000774689801   -0.2500
     18 C18        -6.3884    2.7973   52.3324 C.2     1  ZINC000774689801    0.5700
     19 O19        -6.0822    3.8859   52.7852 O.2     1  ZINC000774689801   -0.5000
     20 N20        -7.6382    2.3053   52.5010 N.am    1  ZINC000774689801   -0.5500
     21 C21        -8.7822    2.9135   53.2020 C.3     1  ZINC000774689801    0.0900
     22 C22       -10.0267    2.1486   52.7064 C.3     1  ZINC000774689801   -0.1300
     23 C23        -9.4224    0.7834   52.3132 C.3     1  ZINC000774689801   -0.0800
     24 C24        -7.9703    1.0930   51.9893 C.2     1  ZINC000774689801    0.4200
     25 N25        -7.1083    0.3626   51.3331 N.2     1  ZINC000774689801   -0.5100
     26 H26        -2.9279    3.3979   52.6620 H       1  ZINC000774689801    0.0800
     27 H27        -2.6299    3.7961   50.9530 H       1  ZINC000774689801    0.1000
     28 H28        -4.1289    4.3385   51.7449 H       1  ZINC000774689801    0.0800
     29 H29        -0.0006    2.2997   48.6621 H       1  ZINC000774689801    0.0900
     30 H30         0.2669    0.5873   49.0676 H       1  ZINC000774689801    0.0800
     31 H31        -1.8576    1.6636   45.8003 H       1  ZINC000774689801    0.1000
     32 H32        -0.9552    2.9637   46.6480 H       1  ZINC000774689801    0.0900
     33 H33        -0.2306    1.4646   44.1130 H       1  ZINC000774689801    0.0800
     34 H34         0.1211    3.1609   44.5591 H       1  ZINC000774689801    0.0800
     35 H35         2.2423    1.9144   44.9800 H       1  ZINC000774689801    0.4100
     36 H36        -8.6706    2.7937   54.2796 H       1  ZINC000774689801    0.1000
     37 H37        -8.8626    3.9699   52.9459 H       1  ZINC000774689801    0.1000
     38 H38       -10.7587    2.0351   53.5061 H       1  ZINC000774689801    0.1100
     39 H39       -10.4694    2.6428   51.8416 H       1  ZINC000774689801    0.0900
     40 H40        -9.4860    0.0841   53.1469 H       1  ZINC000774689801    0.1200
     41 H41        -9.9303    0.3801   51.4371 H       1  ZINC000774689801    0.1200
@<TRIPOS>BOND
     1     1     2    1
     2     1    26    1
     3     1    27    1
     4     1    28    1
     5     2    17    1
     6     2     3    2
     7     3     4    1
     8     3    15    1
     9     4     5    2
    10     4     6    1
    11     6     7    1
    12     7     8    1
    13     7    29    1
    14     7    30    1
    15     8     9    1
    16     8    13    1
    17     8    10    1
    18    10    11    1
    19    10    31    1
    20    10    32    1
    21    11    12    1
    22    11    33    1
    23    11    34    1
    24    12    13   am
    25    12    35    1
    26    13    14    2
    27    15    16    1
    28    16    25    1
    29    16    17    2
    30    17    18    1
    31    18    19    2
    32    18    20   am
    33    20    24    1
    34    20    21    1
    35    21    22    1
    36    21    36    1
    37    21    37    1
    38    22    23    1
    39    22    38    1
    40    22    39    1
    41    23    24    1
    42    23    40    1
    43    23    41    1
    44    24    25    2
@<TRIPOS>SUBSTRUCTURE
     1 ZINC000774689801        1 TEMP              0 ****  ****    0 ROOT


##########                                Name:    ZINC000894043060
##########                DOCK_Rotatable_Bonds:                  11
##########                         Heavy_Atoms:                  26
##########                    Molecular_Weight:             396.812
##########                DOCK_Rotatable_Bonds:                  11
##########                       Formal_Charge:          -0.0199999
##########                     HBond_Acceptors:                   9
##########                        HBond_Donors:                   2
##########                         Heavy_Atoms:                  26
##########                          Grid_Score:          -31.229670
##########                     Grid_vdw_energy:          -29.819788
##########                      Grid_es_energy:           -1.409881
##########           Internal_energy_repulsive:           10.932068

@<TRIPOS>MOLECULE
ZINC000894043060
 47 47 1 0 0
SMALL
USER_CHARGES


@<TRIPOS>ATOM
      1 C1          1.1133    0.3849   46.6751 C.3     1  ZINC000894043060   -0.1700
      2 C2          0.2764    1.5824   46.2203 C.3     1  ZINC000894043060    0.1000
      3 H3          0.9351    2.3600   45.8335 H       1  ZINC000894043060    0.1100
      4 N4         -0.4834    2.1073   47.3575 N.am    1  ZINC000894043060   -0.7300
      5 C5          0.0692    3.0311   48.1684 C.2     1  ZINC000894043060    0.5200
      6 O6          1.1961    3.4268   47.9575 O.2     1  ZINC000894043060   -0.5200
      7 C7         -0.7131    3.5724   49.3372 C.3     1  ZINC000894043060   -0.1400
      8 C8         -0.7521    2.5265   50.4531 C.3     1  ZINC000894043060   -0.0200
      9 C9         -0.2163    3.1415   51.7476 C.3     1  ZINC000894043060   -0.1400
     10 C10         1.2901    3.1591   51.7095 C.2     1  ZINC000894043060    0.5200
     11 O11         1.8759    4.1571   51.3465 O.2     1  ZINC000894043060   -0.5200
     12 N12         1.9864    2.0657   52.0787 N.am    1  ZINC000894043060   -0.7300
     13 C13         3.4508    2.0834   52.0433 C.3     1  ZINC000894043060    0.1000
     14 H14         3.7864    2.6559   51.1786 H       1  ZINC000894043060    0.1200
     15 C15         3.9841    2.7315   53.3225 C.3     1  ZINC000894043060   -0.1700
     16 C16         3.9758    0.6499   51.9407 C.3     1  ZINC000894043060    0.2600
     17 F17         3.4526    0.0425   50.7942 F       1  ZINC000894043060   -0.1900
     18 F18         5.3724    0.6693   51.8622 F       1  ZINC000894043060   -0.2000
     19 C19        -2.1726    2.0698   50.6643 C.ar    1  ZINC000894043060   -0.0600
     20 C20        -2.5616    0.8092   50.2514 C.ar    1  ZINC000894043060   -0.1200
     21 C21        -3.8644    0.3897   50.4447 C.ar    1  ZINC000894043060   -0.1200
     22 C22        -4.7791    1.2320   51.0515 C.ar    1  ZINC000894043060   -0.0400
     23 Cl23       -6.4154    0.7057   51.2952 Cl      1  ZINC000894043060   -0.0800
     24 C24        -4.3891    2.4935   51.4645 C.ar    1  ZINC000894043060   -0.1100
     25 C25        -3.0847    2.9097   51.2757 C.ar    1  ZINC000894043060   -0.0400
     26 C26        -0.6913    1.1401   45.1209 C.3     1  ZINC000894043060    0.2600
     27 F27        -1.5041    2.2179   44.7539 F       1  ZINC000894043060   -0.2000
     28 F28         0.0354    0.7038   44.0079 F       1  ZINC000894043060   -0.1900
     29 H29         0.4547   -0.3927   47.0621 H       1  ZINC000894043060    0.0600
     30 H30         1.6786   -0.0056   45.8290 H       1  ZINC000894043060    0.0800
     31 H31         1.8027    0.7000   47.4584 H       1  ZINC000894043060    0.0800
     32 H32        -1.3842    1.7899   47.5269 H       1  ZINC000894043060    0.4000
     33 H33        -0.2344    4.4795   49.7060 H       1  ZINC000894043060    0.1000
     34 H34        -1.7300    3.8019   49.0188 H       1  ZINC000894043060    0.1000
     35 H35        -0.1340    1.6733   50.1732 H       1  ZINC000894043060    0.1000
     36 H36        -0.5892    4.1609   51.8470 H       1  ZINC000894043060    0.1000
     37 H37        -0.5514    2.5476   52.5979 H       1  ZINC000894043060    0.1000
     38 H38         1.5178    1.2671   52.3679 H       1  ZINC000894043060    0.4000
     39 H39         3.6484    2.1589   54.1871 H       1  ZINC000894043060    0.0700
     40 H40         5.0737    2.7446   53.2961 H       1  ZINC000894043060    0.0800
     41 H41         3.6101    3.7527   53.3956 H       1  ZINC000894043060    0.0700
     42 H42         3.6691    0.0868   52.8222 H       1  ZINC000894043060    0.1200
     43 H43        -1.8477    0.1520   49.7774 H       1  ZINC000894043060    0.1200
     44 H44        -4.1684   -0.5950   50.1218 H       1  ZINC000894043060    0.1300
     45 H45        -5.1028    3.1515   51.9379 H       1  ZINC000894043060    0.1300
     46 H46        -2.7801    3.8943   51.5983 H       1  ZINC000894043060    0.1300
     47 H47        -1.3135    0.3252   45.4907 H       1  ZINC000894043060    0.1100
@<TRIPOS>BOND
     1     1     2    1
     2     1    29    1
     3     1    30    1
     4     1    31    1
     5     2     3    1
     6     2     4    1
     7     2    26    1
     8     4     5   am
     9     4    32    1
    10     5     6    2
    11     5     7    1
    12     7     8    1
    13     7    33    1
    14     7    34    1
    15     8     9    1
    16     8    19    1
    17     8    35    1
    18     9    10    1
    19     9    36    1
    20     9    37    1
    21    10    11    2
    22    10    12   am
    23    12    13    1
    24    12    38    1
    25    13    14    1
    26    13    15    1
    27    13    16    1
    28    15    39    1
    29    15    40    1
    30    15    41    1
    31    16    17    1
    32    16    18    1
    33    16    42    1
    34    19    25   ar
    35    19    20   ar
    36    20    21   ar
    37    20    43    1
    38    21    22   ar
    39    21    44    1
    40    22    23    1
    41    22    24   ar
    42    24    25   ar
    43    24    45    1
    44    25    46    1
    45    26    27    1
    46    26    28    1
    47    26    47    1
@<TRIPOS>SUBSTRUCTURE
     1 ZINC000894043060        1 TEMP              0 ****  ****    0 ROOT


##########                                Name:    ZINC000481838178
##########                DOCK_Rotatable_Bonds:                   6
##########                         Heavy_Atoms:                  29
##########                    Molecular_Weight:             408.524
##########                DOCK_Rotatable_Bonds:                   6
##########                       Formal_Charge:         -0.00999962
##########                     HBond_Acceptors:                   7
##########                        HBond_Donors:                   0
##########                         Heavy_Atoms:                  29
##########                          Grid_Score:          -31.223179
##########                     Grid_vdw_energy:          -31.182320
##########                      Grid_es_energy:           -0.040860
##########           Internal_energy_repulsive:            4.125020

@<TRIPOS>MOLECULE
ZINC000481838178
 53 57 1 0 0
SMALL
USER_CHARGES


@<TRIPOS>ATOM
      1 O1         -0.7344    3.7756   49.9356 O.2     1  ZINC000481838178   -0.5200
      2 C2         -1.0081    2.7886   49.2862 C.2     1  ZINC000481838178    0.5500
      3 C3         -2.0904    1.8522   49.7584 C.3     1  ZINC000481838178   -0.1500
      4 S4         -2.7504    2.4405   51.3377 S.3     1  ZINC000481838178    0.1000
      5 C5         -4.3758    1.7647   51.2609 C.2     1  ZINC000481838178    0.1600
      6 N6         -4.7340    0.6654   50.6365 N.2     1  ZINC000481838178   -0.2800
      7 N7         -5.9944    0.4627   50.7823 N.2     1  ZINC000481838178   -0.2500
      8 C8         -6.5231    1.4216   51.5111 C.2     1  ZINC000481838178    0.2700
      9 C9         -7.9359    1.5472   51.9002 C.2     1  ZINC000481838178    0.0300
     10 C10        -8.8127    0.5183   52.0744 C.2     1  ZINC000481838178   -0.1300
     11 C11       -10.0444    1.0935   52.4420 C.2     1  ZINC000481838178   -0.2100
     12 C12        -9.8638    2.4288   52.4746 C.2     1  ZINC000481838178   -0.0100
     13 O13        -8.5879    2.6994   52.1527 O.3     1  ZINC000481838178   -0.1700
     14 N14        -5.4996    2.2839   51.8458 N.pl3   1  ZINC000481838178   -0.4100
     15 C15        -5.5925    3.4515   52.6157 C.ar    1  ZINC000481838178    0.1000
     16 C16        -5.5378    4.6956   52.0019 C.ar    1  ZINC000481838178   -0.0800
     17 C17        -5.6294    5.8444   52.7633 C.ar    1  ZINC000481838178   -0.1100
     18 C18        -5.7755    5.7562   54.1355 C.ar    1  ZINC000481838178   -0.1000
     19 C19        -5.8303    4.5185   54.7497 C.ar    1  ZINC000481838178   -0.1100
     20 C20        -5.7450    3.3661   53.9931 C.ar    1  ZINC000481838178   -0.0900
     21 N21        -0.3482    2.5320   48.1394 N.am    1  ZINC000481838178   -0.6200
     22 C22        -0.5845    1.3723   47.2385 C.3     1  ZINC000481838178    0.1000
     23 C23        -0.1039    1.8853   45.8758 C.3     1  ZINC000481838178   -0.1100
     24 H24        -0.8198    2.5870   45.4478 H       1  ZINC000481838178    0.0900
     25 C25         0.2904    0.8275   44.8623 C.3     1  ZINC000481838178   -0.1100
     26 C26         0.8444    1.5650   43.6318 C.3     1  ZINC000481838178   -0.1200
     27 C27         2.0255    2.4589   43.9957 C.3     1  ZINC000481838178   -0.1200
     28 C28         1.6702    3.4321   45.1327 C.3     1  ZINC000481838178   -0.1000
     29 C29         1.2043    2.6108   46.3125 C.3     1  ZINC000481838178   -0.1100
     30 H30         1.9570    1.8649   46.5681 H       1  ZINC000481838178    0.0900
     31 C31         0.7350    3.3614   47.5551 C.3     1  ZINC000481838178    0.1200
     32 H32        -2.8911    1.8202   49.0194 H       1  ZINC000481838178    0.1300
     33 H33        -1.6753    0.8527   49.8878 H       1  ZINC000481838178    0.1300
     34 H34        -8.6034   -0.5343   51.9533 H       1  ZINC000481838178    0.1600
     35 H35       -10.9610    0.5644   52.6570 H       1  ZINC000481838178    0.1600
     36 H36       -10.6187    3.1601   52.7231 H       1  ZINC000481838178    0.2100
     37 H37        -5.4233    4.7651   50.9303 H       1  ZINC000481838178    0.1300
     38 H38        -5.5866    6.8124   52.2865 H       1  ZINC000481838178    0.1400
     39 H39        -5.8466    6.6558   54.7289 H       1  ZINC000481838178    0.1300
     40 H40        -5.9441    4.4528   55.8218 H       1  ZINC000481838178    0.1400
     41 H41        -5.7878    2.3997   54.4734 H       1  ZINC000481838178    0.1300
     42 H42         0.0049    0.5120   47.5556 H       1  ZINC000481838178    0.0800
     43 H43        -1.6449    1.1220   47.2033 H       1  ZINC000481838178    0.0800
     44 H44         1.0579    0.1777   45.2828 H       1  ZINC000481838178    0.0700
     45 H45        -0.5828    0.2389   44.5807 H       1  ZINC000481838178    0.0700
     46 H46         1.1677    0.8315   42.8932 H       1  ZINC000481838178    0.0600
     47 H47         0.0540    2.1786   43.1994 H       1  ZINC000481838178    0.0600
     48 H48         2.8611    1.8337   44.3105 H       1  ZINC000481838178    0.0600
     49 H49         2.3225    3.0314   43.1170 H       1  ZINC000481838178    0.0700
     50 H50         2.5480    4.0158   45.4100 H       1  ZINC000481838178    0.0700
     51 H51         0.8662    4.0962   44.8155 H       1  ZINC000481838178    0.0700
     52 H52         0.3628    4.3483   47.2805 H       1  ZINC000481838178    0.0700
     53 H53         1.5519    3.4522   48.2710 H       1  ZINC000481838178    0.0700
@<TRIPOS>BOND
     1     1     2    2
     2     2     3    1
     3     2    21   am
     4     3     4    1
     5     3    32    1
     6     3    33    1
     7     4     5    1
     8     5    14    1
     9     5     6    2
    10     6     7    1
    11     7     8    2
    12     8     9    1
    13     8    14    1
    14     9    13    1
    15     9    10    2
    16    10    11    1
    17    10    34    1
    18    11    12    2
    19    11    35    1
    20    12    13    1
    21    12    36    1
    22    14    15    1
    23    15    20   ar
    24    15    16   ar
    25    16    17   ar
    26    16    37    1
    27    17    18   ar
    28    17    38    1
    29    18    19   ar
    30    18    39    1
    31    19    20   ar
    32    19    40    1
    33    20    41    1
    34    21    31    1
    35    21    22    1
    36    22    23    1
    37    22    42    1
    38    22    43    1
    39    23    24    1
    40    23    29    1
    41    23    25    1
    42    25    26    1
    43    25    44    1
    44    25    45    1
    45    26    27    1
    46    26    46    1
    47    26    47    1
    48    27    28    1
    49    27    48    1
    50    27    49    1
    51    28    29    1
    52    28    50    1
    53    28    51    1
    54    29    30    1
    55    29    31    1
    56    31    52    1
    57    31    53    1
@<TRIPOS>SUBSTRUCTURE
     1 ZINC000481838178        1 TEMP              0 ****  ****    0 ROOT


##########                                Name:    ZINC000274225049
##########                DOCK_Rotatable_Bonds:                   6
##########                         Heavy_Atoms:                  25
##########                    Molecular_Weight:             380.895
##########                DOCK_Rotatable_Bonds:                   6
##########                       Formal_Charge:           0.0200006
##########                     HBond_Acceptors:                   7
##########                        HBond_Donors:                   2
##########                         Heavy_Atoms:                  25
##########                          Grid_Score:          -31.219671
##########                     Grid_vdw_energy:          -30.299889
##########                      Grid_es_energy:           -0.919783
##########           Internal_energy_repulsive:           20.943516

@<TRIPOS>MOLECULE
ZINC000274225049
 46 48 1 0 0
SMALL
USER_CHARGES


@<TRIPOS>ATOM
      1 C1         -5.4397    0.3917   50.9056 C.3     1  ZINC000274225049   -0.1600
      2 C2         -4.4652    1.3736   50.2523 C.3     1  ZINC000274225049    0.2000
      3 H3         -4.8168    1.6225   49.2509 H       1  ZINC000274225049    0.1100
      4 N4         -3.1380    0.7595   50.1651 N.am    1  ZINC000274225049   -0.7400
      5 C5         -2.1479    1.3861   49.4991 C.2     1  ZINC000274225049    0.7100
      6 O6         -2.3559    2.4616   48.9718 O.2     1  ZINC000274225049   -0.5800
      7 N7         -0.9274    0.8203   49.4176 N.am    1  ZINC000274225049   -0.7500
      8 C8          0.1493    1.5021   48.6952 C.3     1  ZINC000274225049    0.1500
      9 C9          0.1036    1.1051   47.2182 C.3     1  ZINC000274225049   -0.1000
     10 H10         0.0465    0.0206   47.1251 H       1  ZINC000274225049    0.1000
     11 C11         1.3541    1.6314   46.4922 C.3     1  ZINC000274225049   -0.1100
     12 C12         1.1256    1.5217   44.9715 C.3     1  ZINC000274225049   -0.5900
     13 S13        -0.6859    1.6474   44.7519 S.o2    1  ZINC000274225049    2.3900
     14 O14        -0.9984    2.8759   44.1099 O.2     1  ZINC000274225049   -0.9300
     15 O15        -1.1820    0.4257   44.2221 O.2     1  ZINC000274225049   -0.9300
     16 C16        -1.1201    1.7623   46.5293 C.3     1  ZINC000274225049   -0.5900
     17 C17        -4.3846    2.6287   51.0826 C.ar    1  ZINC000274225049   -0.0700
     18 C18        -5.4262    3.5706   51.0412 C.ar    1  ZINC000274225049   -0.0300
     19 C19        -6.5591    3.3709   50.2337 C.ar    1  ZINC000274225049   -0.1100
     20 C20        -7.5487    4.3049   50.2193 C.ar    1  ZINC000274225049   -0.1100
     21 C21        -7.4571    5.4597   50.9943 C.ar    1  ZINC000274225049   -0.1100
     22 C22        -6.3751    5.6868   51.7881 C.ar    1  ZINC000274225049   -0.1000
     23 C23        -5.3331    4.7450   51.8293 C.ar    1  ZINC000274225049   -0.0400
     24 C24        -4.1999    4.9444   52.6375 C.ar    1  ZINC000274225049   -0.0300
     25 Cl25       -4.0635    6.3746   53.6121 Cl      1  ZINC000274225049   -0.0600
     26 C26        -3.2096    4.0087   52.6518 C.ar    1  ZINC000274225049   -0.1000
     27 C27        -3.3045    2.8525   51.8807 C.ar    1  ZINC000274225049   -0.1000
     28 H28        -5.4981   -0.5161   50.3050 H       1  ZINC000274225049    0.0700
     29 H29        -5.0881    0.1428   51.9069 H       1  ZINC000274225049    0.0700
     30 H30        -6.4272    0.8486   50.9703 H       1  ZINC000274225049    0.0800
     31 H31        -2.9718   -0.0981   50.5869 H       1  ZINC000274225049    0.4000
     32 H32        -0.7619   -0.0384   49.8373 H       1  ZINC000274225049    0.4000
     33 H33         0.0213    2.5808   48.7856 H       1  ZINC000274225049    0.0800
     34 H34         1.1110    1.2135   49.1194 H       1  ZINC000274225049    0.0800
     35 H35         1.5237    2.6735   46.7631 H       1  ZINC000274225049    0.0900
     36 H36         2.2211    1.0351   46.7765 H       1  ZINC000274225049    0.0900
     37 H37         1.6272    2.3391   44.4535 H       1  ZINC000274225049    0.1400
     38 H38         1.4858    0.5613   44.6029 H       1  ZINC000274225049    0.1400
     39 H39        -2.0315    1.2035   46.7419 H       1  ZINC000274225049    0.1400
     40 H40        -1.2229    2.8033   46.8360 H       1  ZINC000274225049    0.1400
     41 H41        -6.6436    2.4809   49.6277 H       1  ZINC000274225049    0.1300
     42 H42        -8.4181    4.1492   49.5977 H       1  ZINC000274225049    0.1300
     43 H43        -8.2564    6.1853   50.9642 H       1  ZINC000274225049    0.1300
     44 H44        -6.3176    6.5864   52.3829 H       1  ZINC000274225049    0.1300
     45 H45        -2.3399    4.1640   53.2730 H       1  ZINC000274225049    0.1300
     46 H46        -2.5055    2.1265   51.9101 H       1  ZINC000274225049    0.1300
@<TRIPOS>BOND
     1     1     2    1
     2     1    28    1
     3     1    29    1
     4     1    30    1
     5     2     3    1
     6     2     4    1
     7     2    17    1
     8     4     5   am
     9     4    31    1
    10     5     6    2
    11     5     7   am
    12     7     8    1
    13     7    32    1
    14     8     9    1
    15     8    33    1
    16     8    34    1
    17     9    10    1
    18     9    16    1
    19     9    11    1
    20    11    12    1
    21    11    35    1
    22    11    36    1
    23    12    13    1
    24    12    37    1
    25    12    38    1
    26    13    14    2
    27    13    15    2
    28    13    16    1
    29    16    39    1
    30    16    40    1
    31    17    27   ar
    32    17    18   ar
    33    18    23   ar
    34    18    19   ar
    35    19    20   ar
    36    19    41    1
    37    20    21   ar
    38    20    42    1
    39    21    22   ar
    40    21    43    1
    41    22    23   ar
    42    22    44    1
    43    23    24   ar
    44    24    25    1
    45    24    26   ar
    46    26    27   ar
    47    26    45    1
    48    27    46    1
@<TRIPOS>SUBSTRUCTURE
     1 ZINC000274225049        1 TEMP              0 ****  ****    0 ROOT


##########                                Name:    ZINC000534890536
##########                DOCK_Rotatable_Bonds:                   6
##########                         Heavy_Atoms:                  30
##########                    Molecular_Weight:             411.476
##########                DOCK_Rotatable_Bonds:                   6
##########                       Formal_Charge:          0.00999957
##########                     HBond_Acceptors:                   7
##########                        HBond_Donors:                   1
##########                         Heavy_Atoms:                  30
##########                          Grid_Score:          -31.214394
##########                     Grid_vdw_energy:          -30.619392
##########                      Grid_es_energy:           -0.595001
##########           Internal_energy_repulsive:           17.325779

@<TRIPOS>MOLECULE
ZINC000534890536
 56 59 1 0 0
SMALL
USER_CHARGES


@<TRIPOS>ATOM
      1 C1         -0.2192    8.1784   41.5728 C.3     1  ZINC000534890536    0.0300
      2 O2          0.2319    6.8912   41.1465 O.3     1  ZINC000534890536   -0.3200
      3 C3          0.3579    5.9337   42.1025 C.ar    1  ZINC000534890536    0.1300
      4 C4          0.7975    4.6633   41.7599 C.ar    1  ZINC000534890536   -0.2100
      5 C5          0.9252    3.6918   42.7338 C.ar    1  ZINC000534890536   -0.0700
      6 C6          0.6148    3.9847   44.0489 C.ar    1  ZINC000534890536   -0.1100
      7 C7          0.7544    2.9229   45.1092 C.3     1  ZINC000534890536   -0.0600
      8 H8          1.7810    2.8680   45.4714 H       1  ZINC000534890536    0.0900
      9 C9          0.2761    1.5442   44.5820 C.3     1  ZINC000534890536   -0.1200
     10 C10        -0.1572    0.8131   45.8702 C.3     1  ZINC000534890536    0.1000
     11 N11        -0.4436    1.8418   46.8807 N.am    1  ZINC000534890536   -0.6400
     12 C12        -0.8323    1.6092   48.1502 C.2     1  ZINC000534890536    0.7300
     13 O13        -0.9718    0.4673   48.5437 O.2     1  ZINC000534890536   -0.5700
     14 N14        -1.0661    2.6424   48.9834 N.am    1  ZINC000534890536   -0.7300
     15 C15        -1.4901    2.3896   50.3627 C.3     1  ZINC000534890536    0.1600
     16 H16        -1.0504    1.4551   50.7112 H       1  ZINC000534890536    0.1200
     17 C17        -1.0191    3.5382   51.2581 C.3     1  ZINC000534890536   -0.1300
     18 C18        -1.7001    3.3980   52.6248 C.3     1  ZINC000534890536   -0.1300
     19 C19        -3.1983    3.6519   52.4537 C.3     1  ZINC000534890536    0.1100
     20 N20        -3.7330    2.8385   51.3690 N.am    1  ZINC000534890536   -0.5600
     21 C21        -5.1168    2.6266   51.3280 C.ar    1  ZINC000534890536    0.1000
     22 C22        -5.9737    3.6812   51.0466 C.ar    1  ZINC000534890536   -0.0800
     23 C23        -7.3386    3.4692   51.0063 C.ar    1  ZINC000534890536   -0.1200
     24 C24        -7.8521    2.2084   51.2465 C.ar    1  ZINC000534890536   -0.0800
     25 C25        -7.0021    1.1541   51.5275 C.ar    1  ZINC000534890536   -0.1500
     26 C26        -5.6350    1.3576   51.5638 C.ar    1  ZINC000534890536    0.1100
     27 F27        -4.8046    0.3279   51.8379 F       1  ZINC000534890536   -0.1300
     28 C28        -2.9874    2.2857   50.4132 C.2     1  ZINC000534890536    0.5000
     29 O29        -3.5477    1.6621   49.5365 O.2     1  ZINC000534890536   -0.5100
     30 C30        -0.2336    3.1704   46.2763 C.3     1  ZINC000534890536    0.1300
     31 C31         0.1768    5.2503   44.3931 C.ar    1  ZINC000534890536   -0.0700
     32 C32         0.0525    6.2267   43.4238 C.ar    1  ZINC000534890536   -0.1500
     33 H33        -1.2060    8.0857   42.0263 H       1  ZINC000534890536    0.0600
     34 H34         0.4799    8.5847   42.3039 H       1  ZINC000534890536    0.0600
     35 H35        -0.2755    8.8467   40.7135 H       1  ZINC000534890536    0.1000
     36 H36         1.0394    4.4338   40.7328 H       1  ZINC000534890536    0.1300
     37 H37         1.2674    2.7026   42.4677 H       1  ZINC000534890536    0.1300
     38 H38        -0.5684    1.6628   43.9032 H       1  ZINC000534890536    0.0800
     39 H39         1.0934    1.0135   44.0937 H       1  ZINC000534890536    0.0900
     40 H40        -1.0531    0.2228   45.6778 H       1  ZINC000534890536    0.0700
     41 H41         0.6481    0.1659   46.2179 H       1  ZINC000534890536    0.0700
     42 H42        -0.9536    3.5535   48.6698 H       1  ZINC000534890536    0.4000
     43 H43         0.0629    3.4884   51.3803 H       1  ZINC000534890536    0.0900
     44 H44        -1.2943    4.4917   50.8071 H       1  ZINC000534890536    0.0800
     45 H45        -1.5416    2.3910   53.0107 H       1  ZINC000534890536    0.0800
     46 H46        -1.2822    4.1278   53.3182 H       1  ZINC000534890536    0.1000
     47 H47        -3.7145    3.4009   53.3805 H       1  ZINC000534890536    0.0800
     48 H48        -3.3616    4.7057   52.2282 H       1  ZINC000534890536    0.0700
     49 H49        -5.5742    4.6670   50.8593 H       1  ZINC000534890536    0.1300
     50 H50        -8.0054    4.2900   50.7872 H       1  ZINC000534890536    0.1300
     51 H51        -8.9194    2.0464   51.2150 H       1  ZINC000534890536    0.1400
     52 H52        -7.4064    0.1702   51.7147 H       1  ZINC000534890536    0.1400
     53 H53         0.2020    3.8541   47.0051 H       1  ZINC000534890536    0.0800
     54 H54        -1.1753    3.5680   45.8976 H       1  ZINC000534890536    0.0700
     55 H55        -0.0646    5.4766   45.4210 H       1  ZINC000534890536    0.1300
     56 H56        -0.2896    7.2150   43.6930 H       1  ZINC000534890536    0.1300
@<TRIPOS>BOND
     1     1     2    1
     2     1    33    1
     3     1    34    1
     4     1    35    1
     5     2     3    1
     6     3    32   ar
     7     3     4   ar
     8     4     5   ar
     9     4    36    1
    10     5     6   ar
    11     5    37    1
    12     6     7    1
    13     6    31   ar
    14     7     8    1
    15     7    30    1
    16     7     9    1
    17     9    10    1
    18     9    38    1
    19     9    39    1
    20    10    11    1
    21    10    40    1
    22    10    41    1
    23    11    12   am
    24    11    30    1
    25    12    13    2
    26    12    14   am
    27    14    15    1
    28    14    42    1
    29    15    16    1
    30    15    28    1
    31    15    17    1
    32    17    18    1
    33    17    43    1
    34    17    44    1
    35    18    19    1
    36    18    45    1
    37    18    46    1
    38    19    20    1
    39    19    47    1
    40    19    48    1
    41    20    21    1
    42    20    28   am
    43    21    26   ar
    44    21    22   ar
    45    22    23   ar
    46    22    49    1
    47    23    24   ar
    48    23    50    1
    49    24    25   ar
    50    24    51    1
    51    25    26   ar
    52    25    52    1
    53    26    27    1
    54    28    29    2
    55    30    53    1
    56    30    54    1
    57    31    32   ar
    58    31    55    1
    59    32    56    1
@<TRIPOS>SUBSTRUCTURE
     1 ZINC000534890536        1 TEMP              0 ****  ****    0 ROOT


##########                                Name:    ZINC000866034032
##########                DOCK_Rotatable_Bonds:                   4
##########                         Heavy_Atoms:                  23
##########                    Molecular_Weight:             383.242
##########                DOCK_Rotatable_Bonds:                   4
##########                       Formal_Charge:           0.0199999
##########                     HBond_Acceptors:                   6
##########                        HBond_Donors:                   1
##########                         Heavy_Atoms:                  23
##########                          Grid_Score:          -31.212917
##########                     Grid_vdw_energy:          -30.720966
##########                      Grid_es_energy:           -0.491951
##########           Internal_energy_repulsive:           13.084085

@<TRIPOS>MOLECULE
ZINC000866034032
 42 44 1 0 0
SMALL
USER_CHARGES


@<TRIPOS>ATOM
      1 C1          1.4131    5.2721   46.4896 C.3     1  ZINC000866034032   -0.1300
      2 C2          1.0532    3.9021   47.0681 C.3     1  ZINC000866034032   -0.0800
      3 C3          1.9967    3.4666   48.1911 C.3     1  ZINC000866034032   -0.1300
      4 C4         -0.4345    3.7578   47.4239 C.3     1  ZINC000866034032    0.1400
      5 H5         -0.9283    4.7087   47.6242 H       1  ZINC000866034032    0.1100
      6 N6         -0.6936    2.7545   48.4594 N.am    1  ZINC000866034032   -0.7000
      7 C7         -1.0004    3.1435   49.7128 C.2     1  ZINC000866034032    0.5100
      8 O8         -1.0604    4.3241   49.9838 O.2     1  ZINC000866034032   -0.5300
      9 C9         -1.2687    2.1115   50.7777 C.3     1  ZINC000866034032   -0.1100
     10 C10        -2.7098    2.1985   51.2099 C.ar    1  ZINC000866034032   -0.0500
     11 C11        -3.1453    3.2828   51.9482 C.ar    1  ZINC000866034032   -0.0500
     12 C12        -4.4670    3.3629   52.3453 C.ar    1  ZINC000866034032   -0.0900
     13 C13        -5.3537    2.3581   52.0033 C.ar    1  ZINC000866034032   -0.0500
     14 Br14       -7.1619    2.4674   52.5456 Br      1  ZINC000866034032    0.0200
     15 C15        -4.9174    1.2732   51.2640 C.ar    1  ZINC000866034032   -0.0200
     16 N16        -5.8659    0.1979   50.8973 N.pl3   1  ZINC000866034032    0.0200
     17 O17        -5.4817   -0.7572   50.2463 O.2     1  ZINC000866034032   -0.1600
     18 O18        -7.0307    0.2680   51.2464 O.2     1  ZINC000866034032   -0.1300
     19 C19        -3.5971    1.1966   50.8630 C.ar    1  ZINC000866034032   -0.0300
     20 C20        -0.6588    3.2388   45.9942 C.3     1  ZINC000866034032   -0.1500
     21 H21        -0.9656    3.9774   45.2536 H       1  ZINC000866034032    0.1200
     22 C22        -1.4334    1.9026   45.9554 C.3     1  ZINC000866034032   -0.1400
     23 C23        -0.3267    0.8254   45.9393 C.3     1  ZINC000866034032    0.0500
     24 O24         0.8213    1.4669   46.5357 O.3     1  ZINC000866034032   -0.3600
     25 C25         0.8345    2.8227   45.9978 C.3     1  ZINC000866034032    0.0600
     26 H26         1.3818    2.9401   45.0625 H       1  ZINC000866034032    0.1000
     27 H27         0.8095    5.4616   45.6020 H       1  ZINC000866034032    0.0600
     28 H28         1.2169    6.0437   47.2340 H       1  ZINC000866034032    0.0700
     29 H29         2.4693    5.2869   46.2207 H       1  ZINC000866034032    0.0700
     30 H30         1.8299    4.0914   49.0685 H       1  ZINC000866034032    0.0600
     31 H31         1.8027    2.4245   48.4450 H       1  ZINC000866034032    0.0600
     32 H32         3.0297    3.5738   47.8599 H       1  ZINC000866034032    0.0600
     33 H33        -0.6445    1.8102   48.2430 H       1  ZINC000866034032    0.4100
     34 H34        -1.0686    1.1170   50.3786 H       1  ZINC000866034032    0.1100
     35 H35        -0.6206    2.2963   51.6344 H       1  ZINC000866034032    0.1200
     36 H36        -2.4528    4.0674   52.2153 H       1  ZINC000866034032    0.1500
     37 H37        -4.8071    4.2098   52.9228 H       1  ZINC000866034032    0.1600
     38 H38        -3.2565    0.3499   50.2854 H       1  ZINC000866034032    0.1600
     39 H39        -2.0564    1.7967   46.8435 H       1  ZINC000866034032    0.0800
     40 H40        -2.0407    1.8395   45.0523 H       1  ZINC000866034032    0.0800
     41 H41        -0.6291   -0.0382   46.5317 H       1  ZINC000866034032    0.0900
     42 H42        -0.1043    0.5252   44.9153 H       1  ZINC000866034032    0.0600
@<TRIPOS>BOND
     1     1     2    1
     2     1    27    1
     3     1    28    1
     4     1    29    1
     5     2    25    1
     6     2     3    1
     7     2     4    1
     8     3    30    1
     9     3    31    1
    10     3    32    1
    11     4     5    1
    12     4     6    1
    13     4    20    1
    14     6     7   am
    15     6    33    1
    16     7     8    2
    17     7     9    1
    18     9    10    1
    19     9    34    1
    20     9    35    1
    21    10    19   ar
    22    10    11   ar
    23    11    12   ar
    24    11    36    1
    25    12    13   ar
    26    12    37    1
    27    13    14    1
    28    13    15   ar
    29    15    16    1
    30    15    19   ar
    31    16    17    2
    32    16    18    2
    33    19    38    1
    34    20    21    1
    35    20    25    1
    36    20    22    1
    37    22    23    1
    38    22    39    1
    39    22    40    1
    40    23    24    1
    41    23    41    1
    42    23    42    1
    43    24    25    1
    44    25    26    1
@<TRIPOS>SUBSTRUCTURE
     1 ZINC000866034032        1 TEMP              0 ****  ****    0 ROOT


##########                                Name:    ZINC001371344729
##########                DOCK_Rotatable_Bonds:                   9
##########                         Heavy_Atoms:                  24
##########                    Molecular_Weight:             332.399
##########                DOCK_Rotatable_Bonds:                   9
##########                       Formal_Charge:          0.00999983
##########                     HBond_Acceptors:                   6
##########                        HBond_Donors:                   1
##########                         Heavy_Atoms:                  24
##########                          Grid_Score:          -31.205198
##########                     Grid_vdw_energy:          -28.310188
##########                      Grid_es_energy:           -2.895010
##########           Internal_energy_repulsive:           20.855253

@<TRIPOS>MOLECULE
ZINC001371344729
 48 49 1 0 0
SMALL
USER_CHARGES


@<TRIPOS>ATOM
      1 C1         -9.0214    4.9144   57.4423 C.3     1  ZINC001371344729   -0.1800
      2 C2         -9.0250    3.8477   56.3455 C.3     1  ZINC001371344729    0.1000
      3 N3         -7.7894    3.0643   56.4221 N.am    1  ZINC001371344729   -0.6100
      4 C4         -7.6524    2.1125   57.3666 C.2     1  ZINC001371344729    0.5100
      5 O5         -6.6302    1.4629   57.4291 O.2     1  ZINC001371344729   -0.5200
      6 C6         -8.7696    1.8554   58.3449 C.3     1  ZINC001371344729   -0.0600
      7 C7         -8.6199    0.4733   58.9265 C.2     1  ZINC001371344729   -0.0100
      8 C8         -9.1501   -0.6547   58.4208 C.2     1  ZINC001371344729   -0.1600
      9 C9         -9.9958   -0.7713   57.1788 C.3     1  ZINC001371344729   -0.0800
     10 C10        -8.7671   -1.7090   59.2813 C.2     1  ZINC001371344729   -0.2100
     11 C11        -8.0177   -1.1636   60.2562 C.2     1  ZINC001371344729   -0.0300
     12 O12        -7.9350    0.1590   60.0382 O.3     1  ZINC001371344729   -0.1700
     13 C13        -6.7027    3.3153   55.4722 C.3     1  ZINC001371344729    0.1200
     14 H14        -5.8485    2.6864   55.7229 H       1  ZINC001371344729    0.1100
     15 C15        -6.2914    4.7872   55.5454 C.3     1  ZINC001371344729   -0.1600
     16 C16        -7.1783    2.9884   54.0553 C.3     1  ZINC001371344729    0.1100
     17 N17        -6.0603    2.4491   53.2771 N.am    1  ZINC001371344729   -0.7200
     18 C18        -6.2924    1.8367   52.0992 C.2     1  ZINC001371344729    0.5900
     19 O19        -7.4300    1.7329   51.6817 O.2     1  ZINC001371344729   -0.5300
     20 C20        -5.1679    1.2926   51.3174 C.2     1  ZINC001371344729   -0.2300
     21 C21        -5.1856    0.2045   50.4947 C.2     1  ZINC001371344729    0.0200
     22 O22        -3.9643    0.0493   49.9743 O.3     1  ZINC001371344729   -0.1700
     23 C23        -3.1264    0.9941   50.4288 C.2     1  ZINC001371344729   -0.0100
     24 C24        -1.6715    1.1233   50.0579 C.3     1  ZINC001371344729   -0.0800
     25 C25        -3.7909    1.8053   51.2660 C.2     1  ZINC001371344729   -0.1600
     26 H26        -8.1642    5.5735   57.3052 H       1  ZINC001371344729    0.0700
     27 H27        -9.9407    5.4973   57.3852 H       1  ZINC001371344729    0.0700
     28 H28        -8.9567    4.4324   58.4178 H       1  ZINC001371344729    0.0600
     29 H29        -9.0895    4.3298   55.3700 H       1  ZINC001371344729    0.0900
     30 H30        -9.8822    3.1885   56.4826 H       1  ZINC001371344729    0.0800
     31 H31        -9.7276    1.9314   57.8306 H       1  ZINC001371344729    0.1100
     32 H32        -8.7279    2.5933   59.1461 H       1  ZINC001371344729    0.1200
     33 H33        -9.3525   -0.9453   56.3163 H       1  ZINC001371344729    0.0700
     34 H34       -10.6895   -1.6049   57.2886 H       1  ZINC001371344729    0.0700
     35 H35       -10.5569    0.1518   57.0333 H       1  ZINC001371344729    0.0600
     36 H36        -9.0243   -2.7526   59.1748 H       1  ZINC001371344729    0.1500
     37 H37        -7.5641   -1.6979   61.0779 H       1  ZINC001371344729    0.2000
     38 H38        -5.9526    5.0200   56.5549 H       1  ZINC001371344729    0.0700
     39 H39        -5.4828    4.9740   54.8386 H       1  ZINC001371344729    0.0700
     40 H40        -7.1457    5.4160   55.2947 H       1  ZINC001371344729    0.0700
     41 H41        -7.9783    2.2495   54.1019 H       1  ZINC001371344729    0.0800
     42 H42        -7.5490    3.8956   53.5781 H       1  ZINC001371344729    0.0800
     43 H43        -5.1529    2.5329   53.6096 H       1  ZINC001371344729    0.4000
     44 H44        -6.0416   -0.4234   50.2960 H       1  ZINC001371344729    0.2100
     45 H45        -1.0656    0.5484   50.7583 H       1  ZINC001371344729    0.0800
     46 H46        -1.5188    0.7430   49.0480 H       1  ZINC001371344729    0.0800
     47 H47        -1.3778    2.1722   50.0994 H       1  ZINC001371344729    0.0900
     48 H48        -3.3952    2.6603   51.7940 H       1  ZINC001371344729    0.1600
@<TRIPOS>BOND
     1     1     2    1
     2     1    26    1
     3     1    27    1
     4     1    28    1
     5     2     3    1
     6     2    29    1
     7     2    30    1
     8     3     4   am
     9     3    13    1
    10     4     5    2
    11     4     6    1
    12     6     7    1
    13     6    31    1
    14     6    32    1
    15     7    12    1
    16     7     8    2
    17     8     9    1
    18     8    10    1
    19     9    33    1
    20     9    34    1
    21     9    35    1
    22    10    11    2
    23    10    36    1
    24    11    12    1
    25    11    37    1
    26    13    14    1
    27    13    15    1
    28    13    16    1
    29    15    38    1
    30    15    39    1
    31    15    40    1
    32    16    17    1
    33    16    41    1
    34    16    42    1
    35    17    18   am
    36    17    43    1
    37    18    19    2
    38    18    20    1
    39    20    25    1
    40    20    21    2
    41    21    22    1
    42    21    44    1
    43    22    23    1
    44    23    24    1
    45    23    25    2
    46    24    45    1
    47    24    46    1
    48    24    47    1
    49    25    48    1
@<TRIPOS>SUBSTRUCTURE
     1 ZINC001371344729        1 TEMP              0 ****  ****    0 ROOT


##########                                Name:    ZINC000654382142
##########                DOCK_Rotatable_Bonds:                  14
##########                         Heavy_Atoms:                  24
##########                    Molecular_Weight:             379.401
##########                DOCK_Rotatable_Bonds:                  14
##########                       Formal_Charge:          0.00999933
##########                     HBond_Acceptors:                  12
##########                        HBond_Donors:                   2
##########                         Heavy_Atoms:                  24
##########                          Grid_Score:          -31.156143
##########                     Grid_vdw_energy:          -30.118675
##########                      Grid_es_energy:           -1.037468
##########           Internal_energy_repulsive:           15.356133

@<TRIPOS>MOLECULE
ZINC000654382142
 48 47 1 0 0
SMALL
USER_CHARGES


@<TRIPOS>ATOM
      1 C1         -5.2437   -0.4679   50.7132 C.3     1  ZINC000654382142    0.0300
      2 O2         -6.2534    0.2187   49.9708 O.3     1  ZINC000654382142   -0.3700
      3 C3         -6.1879    1.6421   50.0795 C.3     1  ZINC000654382142    0.0400
      4 C4         -6.7824    2.0790   51.4198 C.3     1  ZINC000654382142    0.1400
      5 N5         -6.7491    3.5405   51.5157 N.am    1  ZINC000654382142   -0.6100
      6 C6         -7.9727    4.3167   51.2998 C.3     1  ZINC000654382142    0.0800
      7 C7         -8.1662    4.5574   49.8012 C.3     1  ZINC000654382142    0.0500
      8 H8         -8.1479    3.6033   49.2746 H       1  ZINC000654382142    0.1400
      9 O9         -7.1134    5.3913   49.3129 O.3     1  ZINC000654382142   -0.5200
     10 C10        -9.5125    5.2448   49.5647 C.3     1  ZINC000654382142    0.4200
     11 F11        -9.6452    5.5561   48.2072 F       1  ZINC000654382142   -0.1800
     12 F12       -10.5481    4.3867   49.9498 F       1  ZINC000654382142   -0.1700
     13 F13        -9.5751    6.4202   50.3209 F       1  ZINC000654382142   -0.1800
     14 C14        -5.5930    4.1709   51.8023 C.2     1  ZINC000654382142    0.7100
     15 O15        -5.5658    5.3839   51.8833 O.2     1  ZINC000654382142   -0.5600
     16 N16        -4.4670    3.4570   51.9993 N.am    1  ZINC000654382142   -0.7500
     17 C17        -3.2098    4.1424   52.3092 C.3     1  ZINC000654382142    0.1400
     18 C18        -2.0360    3.1946   52.0546 C.3     1  ZINC000654382142   -0.1600
     19 C19        -1.4253    3.4958   50.6845 C.3     1  ZINC000654382142    0.1200
     20 N20        -0.3376    2.5518   50.4165 N.am    1  ZINC000654382142   -1.0000
     21 C21         0.9330    2.6749   51.1353 C.3     1  ZINC000654382142    0.0900
     22 S22        -0.5442    1.3454   49.3010 S.o2    1  ZINC000654382142    2.6100
     23 C23        -0.8887    2.2185   47.7487 C.3     1  ZINC000654382142   -0.6800
     24 O24         0.7217    0.7027   49.2414 O.2     1  ZINC000654382142   -0.9500
     25 O25        -1.6992    0.6487   49.7481 O.2     1  ZINC000654382142   -0.9500
     26 H26        -5.3618   -1.5431   50.5787 H       1  ZINC000654382142    0.0900
     27 H27        -4.2598   -0.1631   50.3564 H       1  ZINC000654382142    0.0400
     28 H28        -5.3392   -0.2213   51.7706 H       1  ZINC000654382142    0.0400
     29 H29        -5.1481    1.9635   50.0212 H       1  ZINC000654382142    0.0500
     30 H30        -6.7544    2.0951   49.2658 H       1  ZINC000654382142    0.0600
     31 H31        -7.8139    1.7337   51.4897 H       1  ZINC000654382142    0.0900
     32 H32        -6.1992    1.6482   52.2337 H       1  ZINC000654382142    0.1000
     33 H33        -8.8269    3.7652   51.6924 H       1  ZINC000654382142    0.1000
     34 H34        -7.8910    5.2744   51.8140 H       1  ZINC000654382142    0.1000
     35 H35        -7.1245    5.5182   48.3544 H       1  ZINC000654382142    0.3900
     36 H36        -4.4890    2.4893   51.9360 H       1  ZINC000654382142    0.3900
     37 H37        -3.1101    5.0230   51.6745 H       1  ZINC000654382142    0.0700
     38 H38        -3.2105    4.4471   53.3558 H       1  ZINC000654382142    0.0700
     39 H39        -1.2809    3.3356   52.8279 H       1  ZINC000654382142    0.0700
     40 H40        -2.3900    2.1640   52.0759 H       1  ZINC000654382142    0.0800
     41 H41        -2.1912    3.3956   49.9153 H       1  ZINC000654382142    0.0900
     42 H42        -1.0337    4.5131   50.6769 H       1  ZINC000654382142    0.1000
     43 H43         0.8912    2.0850   52.0509 H       1  ZINC000654382142    0.0600
     44 H44         1.7440    2.3105   50.5048 H       1  ZINC000654382142    0.0700
     45 H45         1.1091    3.7212   51.3852 H       1  ZINC000654382142    0.0700
     46 H46        -0.0456    2.8630   47.4996 H       1  ZINC000654382142    0.1300
     47 H47        -1.0397    1.4928   46.9495 H       1  ZINC000654382142    0.1300
     48 H48        -1.7874    2.8242   47.8642 H       1  ZINC000654382142    0.1300
@<TRIPOS>BOND
     1     1     2    1
     2     1    26    1
     3     1    27    1
     4     1    28    1
     5     2     3    1
     6     3     4    1
     7     3    29    1
     8     3    30    1
     9     4     5    1
    10     4    31    1
    11     4    32    1
    12     5     6    1
    13     5    14   am
    14     6     7    1
    15     6    33    1
    16     6    34    1
    17     7     8    1
    18     7     9    1
    19     7    10    1
    20     9    35    1
    21    10    11    1
    22    10    12    1
    23    10    13    1
    24    14    15    2
    25    14    16   am
    26    16    17    1
    27    16    36    1
    28    17    18    1
    29    17    37    1
    30    17    38    1
    31    18    19    1
    32    18    39    1
    33    18    40    1
    34    19    20    1
    35    19    41    1
    36    19    42    1
    37    20    21    1
    38    20    22   am
    39    21    43    1
    40    21    44    1
    41    21    45    1
    42    22    23    1
    43    22    24    2
    44    22    25    2
    45    23    46    1
    46    23    47    1
    47    23    48    1
@<TRIPOS>SUBSTRUCTURE
     1 ZINC000654382142        1 TEMP              0 ****  ****    0 ROOT


##########                                Name:    ZINC001064463188
##########                DOCK_Rotatable_Bonds:                   6
##########                         Heavy_Atoms:                  25
##########                    Molecular_Weight:             342.441
##########                DOCK_Rotatable_Bonds:                   6
##########                       Formal_Charge:          -0.0100004
##########                     HBond_Acceptors:                   6
##########                        HBond_Donors:                   0
##########                         Heavy_Atoms:                  25
##########                          Grid_Score:          -31.145014
##########                     Grid_vdw_energy:          -30.771658
##########                      Grid_es_energy:           -0.373356
##########           Internal_energy_repulsive:           12.480511

@<TRIPOS>MOLECULE
ZINC001064463188
 51 54 1 0 0
SMALL
USER_CHARGES


@<TRIPOS>ATOM
      1 C1         -6.2969    3.9907   52.8647 C.3     1  ZINC001064463188    0.0400
      2 O2         -6.4703    3.3403   51.6041 O.3     1  ZINC001064463188   -0.3000
      3 C3         -5.5214    2.4445   51.2383 C.ar    1  ZINC001064463188    0.3900
      4 C4         -5.8422    1.0962   51.0895 C.ar    1  ZINC001064463188   -0.2800
      5 C5         -4.8428    0.2177   50.7148 C.ar    1  ZINC001064463188    0.2000
      6 N6         -3.6185    0.6790   50.5098 N.ar    1  ZINC001064463188   -0.5800
      7 C7         -3.3430    1.9664   50.6590 C.ar    1  ZINC001064463188    0.5300
      8 N8         -2.0515    2.4106   50.4350 N.3     1  ZINC001064463188   -0.4500
      9 C9         -1.4433    2.8966   51.6714 C.3     1  ZINC001064463188    0.0700
     10 C10        -0.6955    4.2098   51.4116 C.3     1  ZINC001064463188   -0.1200
     11 C11         0.5156    4.0083   50.5208 C.3     1  ZINC001064463188    0.1400
     12 H12         0.9864    4.9687   50.3112 H       1  ZINC001064463188    0.0900
     13 C13         1.5316    3.0574   51.1568 C.3     1  ZINC001064463188   -0.1300
     14 C14         1.1013    1.6624   50.6698 C.3     1  ZINC001064463188   -0.1300
     15 C15         0.1662    1.9213   49.4835 C.3     1  ZINC001064463188    0.1200
     16 H16         0.5665    1.4439   48.5890 H       1  ZINC001064463188    0.0900
     17 C17        -1.2319    1.3573   49.7799 C.3     1  ZINC001064463188    0.0600
     18 N18         0.0432    3.3851   49.2496 N.am    1  ZINC001064463188   -0.6000
     19 C19        -0.3990    4.0011   48.1354 C.2     1  ZINC001064463188    0.5800
     20 O20        -0.4460    5.2155   48.0900 O.2     1  ZINC001064463188   -0.5400
     21 C21        -0.8248    3.2046   46.9742 C.2     1  ZINC001064463188   -0.2200
     22 C22        -0.0248    3.0884   45.9182 C.2     1  ZINC001064463188    0.0000
     23 C23         1.3179    3.7727   45.9112 C.3     1  ZINC001064463188   -0.1300
     24 C24        -0.4609    2.2725   44.7286 C.3     1  ZINC001064463188   -0.1200
     25 C25         0.5655    1.3215   44.1097 C.3     1  ZINC001064463188   -0.1900
     26 C26        -0.6037    0.7616   44.9223 C.3     1  ZINC001064463188   -0.1600
     27 N27        -4.2745    2.8398   51.0113 N.ar    1  ZINC001064463188   -0.5900
     28 H28        -5.3575    4.5437   52.8620 H       1  ZINC001064463188    0.0600
     29 H29        -7.1239    4.6801   53.0346 H       1  ZINC001064463188    0.1000
     30 H30        -6.2768    3.2444   53.6589 H       1  ZINC001064463188    0.0600
     31 H31        -6.8489    0.7457   51.2633 H       1  ZINC001064463188    0.1500
     32 H32        -5.0580   -0.8335   50.5913 H       1  ZINC001064463188    0.1800
     33 H33        -2.2220    3.0653   52.4151 H       1  ZINC001064463188    0.0800
     34 H34        -0.7432    2.1504   52.0472 H       1  ZINC001064463188    0.0600
     35 H35        -1.3743    4.9153   50.9326 H       1  ZINC001064463188    0.0800
     36 H36        -0.3689    4.6260   52.3647 H       1  ZINC001064463188    0.0800
     37 H37         2.5389    3.2883   50.8102 H       1  ZINC001064463188    0.0800
     38 H38         1.4789    3.1147   52.2440 H       1  ZINC001064463188    0.0900
     39 H39         1.9710    1.0895   50.3478 H       1  ZINC001064463188    0.0800
     40 H40         0.5707    1.1328   51.4610 H       1  ZINC001064463188    0.0800
     41 H41        -1.1470    0.5079   50.4577 H       1  ZINC001064463188    0.0700
     42 H42        -1.7019    1.0387   48.8494 H       1  ZINC001064463188    0.0900
     43 H43        -1.7871    2.7143   46.9794 H       1  ZINC001064463188    0.1200
     44 H44         2.0700    3.1014   46.3259 H       1  ZINC001064463188    0.0800
     45 H45         1.5878    4.0327   44.8876 H       1  ZINC001064463188    0.0800
     46 H46         1.2671    4.6788   46.5149 H       1  ZINC001064463188    0.0700
     47 H47        -1.1641    2.7623   44.0550 H       1  ZINC001064463188    0.1400
     48 H48         0.5377    1.1856   43.0285 H       1  ZINC001064463188    0.1000
     49 H49         1.5561    1.2861   44.5628 H       1  ZINC001064463188    0.1000
     50 H50        -0.3821    0.3577   45.9101 H       1  ZINC001064463188    0.0900
     51 H51        -1.4005    0.2572   44.3759 H       1  ZINC001064463188    0.1000
@<TRIPOS>BOND
     1     1     2    1
     2     1    28    1
     3     1    29    1
     4     1    30    1
     5     2     3    1
     6     3    27   ar
     7     3     4   ar
     8     4     5   ar
     9     4    31    1
    10     5     6   ar
    11     5    32    1
    12     6     7   ar
    13     7     8    1
    14     7    27   ar
    15     8    17    1
    16     8     9    1
    17     9    10    1
    18     9    33    1
    19     9    34    1
    20    10    11    1
    21    10    35    1
    22    10    36    1
    23    11    12    1
    24    11    18    1
    25    11    13    1
    26    13    14    1
    27    13    37    1
    28    13    38    1
    29    14    15    1
    30    14    39    1
    31    14    40    1
    32    15    16    1
    33    15    17    1
    34    15    18    1
    35    17    41    1
    36    17    42    1
    37    18    19   am
    38    19    20    2
    39    19    21    1
    40    21    22    2
    41    21    43    1
    42    22    23    1
    43    22    24    1
    44    23    44    1
    45    23    45    1
    46    23    46    1
    47    24    26    1
    48    24    25    1
    49    24    47    1
    50    25    26    1
    51    25    48    1
    52    25    49    1
    53    26    50    1
    54    26    51    1
@<TRIPOS>SUBSTRUCTURE
     1 ZINC001064463188        1 TEMP              0 ****  ****    0 ROOT


##########                                Name:    ZINC001400108193
##########                DOCK_Rotatable_Bonds:                   9
##########                         Heavy_Atoms:                  25
##########                    Molecular_Weight:              344.41
##########                DOCK_Rotatable_Bonds:                   9
##########                       Formal_Charge:           0.0200001
##########                     HBond_Acceptors:                   6
##########                        HBond_Donors:                   2
##########                         Heavy_Atoms:                  25
##########                          Grid_Score:          -31.142326
##########                     Grid_vdw_energy:          -30.857048
##########                      Grid_es_energy:           -0.285279
##########           Internal_energy_repulsive:           10.368648

@<TRIPOS>MOLECULE
ZINC001400108193
 49 50 1 0 0
SMALL
USER_CHARGES


@<TRIPOS>ATOM
      1 C1         -9.2025    1.7675   56.6190 C.3     1  ZINC001400108193   -0.0800
      2 C2         -9.0466    1.8377   55.1217 C.2     1  ZINC001400108193   -0.0100
      3 C3         -7.8917    2.0366   54.4682 C.2     1  ZINC001400108193   -0.1600
      4 C4         -8.2303    2.0282   53.0375 C.2     1  ZINC001400108193   -0.2300
      5 C5         -7.3072    2.2061   51.9025 C.2     1  ZINC001400108193    0.5900
      6 O6         -7.7298    2.1655   50.7629 O.2     1  ZINC001400108193   -0.5300
      7 N7         -5.9947    2.4138   52.1275 N.am    1  ZINC001400108193   -0.7300
      8 C8         -5.0768    2.5890   50.9992 C.3     1  ZINC001400108193    0.1100
      9 C9         -4.2996    1.2915   50.7679 C.3     1  ZINC001400108193    0.1300
     10 H10        -3.7708    1.0172   51.6807 H       1  ZINC001400108193    0.1000
     11 C11        -5.2735    0.1745   50.3873 C.3     1  ZINC001400108193   -0.1600
     12 N12        -3.3336    1.4874   49.6841 N.am    1  ZINC001400108193   -0.7300
     13 C13        -2.0915    1.9314   49.9605 C.2     1  ZINC001400108193    0.5200
     14 O14        -1.7729    2.1673   51.1067 O.2     1  ZINC001400108193   -0.5100
     15 C15        -1.0984    2.1347   48.8453 C.3     1  ZINC001400108193    0.0700
     16 H16        -0.6212    3.1084   48.9567 H       1  ZINC001400108193    0.1000
     17 C17        -0.0351    1.0361   48.9028 C.3     1  ZINC001400108193   -0.1800
     18 O18        -1.7753    2.0771   47.5882 O.3     1  ZINC001400108193   -0.2800
     19 C19        -1.0509    2.3921   46.4824 C.ar    1  ZINC001400108193    0.1200
     20 C20        -0.7332    1.4088   45.5566 C.ar    1  ZINC001400108193   -0.2100
     21 C21         0.0029    1.7316   44.4331 C.ar    1  ZINC001400108193   -0.0800
     22 C22         0.4274    3.0323   44.2334 C.ar    1  ZINC001400108193   -0.1200
     23 C23         1.2356    3.3804   43.0099 C.3     1  ZINC001400108193   -0.1100
     24 C24         0.1076    4.0151   45.1519 C.ar    1  ZINC001400108193   -0.0800
     25 C25        -0.6283    3.6974   46.2771 C.ar    1  ZINC001400108193   -0.1400
     26 C26        -9.5784    1.8274   52.9804 C.2     1  ZINC001400108193    0.0200
     27 O27       -10.0408    1.7113   54.2290 O.3     1  ZINC001400108193   -0.1700
     28 H28        -9.3972    2.7657   57.0111 H       1  ZINC001400108193    0.0900
     29 H29       -10.0362    1.1106   56.8671 H       1  ZINC001400108193    0.0800
     30 H30        -8.2868    1.3754   57.0616 H       1  ZINC001400108193    0.0900
     31 H31        -6.9133    2.1743   54.9041 H       1  ZINC001400108193    0.1600
     32 H32        -5.6578    2.4474   53.0366 H       1  ZINC001400108193    0.4000
     33 H33        -4.3786    3.3962   51.2207 H       1  ZINC001400108193    0.0800
     34 H34        -5.6457    2.8364   50.1031 H       1  ZINC001400108193    0.0900
     35 H35        -4.7198   -0.7498   50.2227 H       1  ZINC001400108193    0.0700
     36 H36        -5.9922    0.0288   51.1938 H       1  ZINC001400108193    0.0700
     37 H37        -5.8023    0.4489   49.4746 H       1  ZINC001400108193    0.0600
     38 H38        -3.5881    1.2977   48.7675 H       1  ZINC001400108193    0.4000
     39 H39         0.4813    1.0800   49.8617 H       1  ZINC001400108193    0.0800
     40 H40        -0.5123    0.0625   48.7913 H       1  ZINC001400108193    0.0800
     41 H41         0.6832    1.1831   48.0962 H       1  ZINC001400108193    0.0800
     42 H42        -1.0607    0.3919   45.7145 H       1  ZINC001400108193    0.1300
     43 H43         0.2508    0.9665   43.7123 H       1  ZINC001400108193    0.1300
     44 H44         0.5643    3.6681   42.2009 H       1  ZINC001400108193    0.0700
     45 H45         1.9039    4.2101   43.2400 H       1  ZINC001400108193    0.0700
     46 H46         1.8231    2.5146   42.7042 H       1  ZINC001400108193    0.0700
     47 H47         0.4368    5.0311   44.9917 H       1  ZINC001400108193    0.1300
     48 H48        -0.8747    4.4647   46.9961 H       1  ZINC001400108193    0.1300
     49 H49       -10.1709    1.7692   52.0793 H       1  ZINC001400108193    0.2100
@<TRIPOS>BOND
     1     1     2    1
     2     1    28    1
     3     1    29    1
     4     1    30    1
     5     2    27    1
     6     2     3    2
     7     3     4    1
     8     3    31    1
     9     4     5    1
    10     4    26    2
    11     5     6    2
    12     5     7   am
    13     7     8    1
    14     7    32    1
    15     8     9    1
    16     8    33    1
    17     8    34    1
    18     9    10    1
    19     9    11    1
    20     9    12    1
    21    11    35    1
    22    11    36    1
    23    11    37    1
    24    12    13   am
    25    12    38    1
    26    13    14    2
    27    13    15    1
    28    15    16    1
    29    15    17    1
    30    15    18    1
    31    17    39    1
    32    17    40    1
    33    17    41    1
    34    18    19    1
    35    19    25   ar
    36    19    20   ar
    37    20    21   ar
    38    20    42    1
    39    21    22   ar
    40    21    43    1
    41    22    23    1
    42    22    24   ar
    43    23    44    1
    44    23    45    1
    45    23    46    1
    46    24    25   ar
    47    24    47    1
    48    25    48    1
    49    26    27    1
    50    26    49    1
@<TRIPOS>SUBSTRUCTURE
     1 ZINC001400108193        1 TEMP              0 ****  ****    0 ROOT


##########                                Name:    ZINC000672622940
##########                DOCK_Rotatable_Bonds:                   7
##########                         Heavy_Atoms:                  30
##########                    Molecular_Weight:             416.523
##########                DOCK_Rotatable_Bonds:                   7
##########                       Formal_Charge:          -0.0100002
##########                     HBond_Acceptors:                   9
##########                        HBond_Donors:                   1
##########                         Heavy_Atoms:                  30
##########                          Grid_Score:          -31.138880
##########                     Grid_vdw_energy:          -29.987246
##########                      Grid_es_energy:           -1.151635
##########           Internal_energy_repulsive:           22.617067

@<TRIPOS>MOLECULE
ZINC000672622940
 62 65 1 0 0
SMALL
USER_CHARGES


@<TRIPOS>ATOM
      1 C1        -11.2640   -0.3527   60.5108 C.3     1  ZINC000672622940    0.0800
      2 N2        -10.9168   -1.4049   59.5526 N.am    1  ZINC000672622940   -0.6200
      3 C3        -11.1510   -2.8108   59.8917 C.3     1  ZINC000672622940    0.0700
      4 C4        -10.3817   -1.0797   58.3591 C.2     1  ZINC000672622940    0.5200
      5 O5        -10.0956   -1.9507   57.5652 O.2     1  ZINC000672622940   -0.5300
      6 C6        -10.1390    0.3664   58.0111 C.3     1  ZINC000672622940   -0.1000
      7 H7        -11.0027    0.9614   58.3077 H       1  ZINC000672622940    0.1000
      8 C8         -8.8966    0.8673   58.7502 C.3     1  ZINC000672622940   -0.1300
      9 C9         -8.6502    2.3354   58.3969 C.3     1  ZINC000672622940   -0.1100
     10 C10        -8.4338    2.4674   56.8881 C.3     1  ZINC000672622940   -0.1300
     11 C11        -9.6763    1.9665   56.1489 C.3     1  ZINC000672622940    0.1400
     12 H12       -10.5401    2.5616   56.4456 H       1  ZINC000672622940    0.1000
     13 N13        -9.4692    2.0930   54.7041 N.am    1  ZINC000672622940   -0.6900
     14 C14        -9.5954    3.2951   54.1079 C.2     1  ZINC000672622940    0.5100
     15 O15        -9.8791    4.2730   54.7681 O.2     1  ZINC000672622940   -0.5100
     16 C16        -9.3858    3.4238   52.6338 C.2     1  ZINC000672622940    0.5100
     17 O17       -10.3181    3.2689   51.8726 O.2     1  ZINC000672622940   -0.5200
     18 N18        -8.1614    3.7120   52.1499 N.am    1  ZINC000672622940   -0.5800
     19 C19        -7.0217    3.8964   53.0585 C.3     1  ZINC000672622940    0.0700
     20 C20        -5.8853    2.9678   52.6189 C.3     1  ZINC000672622940   -0.1200
     21 C21        -5.5624    3.2255   51.1453 C.3     1  ZINC000672622940    0.0000
     22 C22        -4.4220    2.3377   50.7185 C.2     1  ZINC000672622940    0.2000
     23 N23        -4.5212    1.1318   50.2295 N.2     1  ZINC000672622940   -0.2800
     24 N24        -3.3485    0.6705   49.9743 N.2     1  ZINC000672622940   -0.2800
     25 C25        -2.4475    1.5633   50.2887 C.2     1  ZINC000672622940    0.1500
     26 C26        -0.9552    1.8149   50.3029 C.3     1  ZINC000672622940   -0.0400
     27 C27        -0.8287    3.3470   50.4643 C.3     1  ZINC000672622940   -0.1300
     28 C28        -2.1623    3.7031   51.1570 C.3     1  ZINC000672622940    0.1000
     29 N29        -3.1021    2.6456   50.7655 N.pl3   1  ZINC000672622940   -0.4900
     30 C30        -6.7944    2.9197   50.2903 C.3     1  ZINC000672622940   -0.1200
     31 C31        -7.9397    3.8416   50.7032 C.3     1  ZINC000672622940    0.1100
     32 C32        -9.9227    0.4985   56.5022 C.3     1  ZINC000672622940   -0.1100
     33 H33       -10.4080   -0.1507   61.1548 H       1  ZINC000672622940    0.0600
     34 H34       -11.5350    0.5550   59.9715 H       1  ZINC000672622940    0.0800
     35 H35       -12.1074   -0.6792   61.1193 H       1  ZINC000672622940    0.0700
     36 H36       -12.1513   -3.1004   59.5695 H       1  ZINC000672622940    0.0600
     37 H37       -10.4123   -3.4340   59.3877 H       1  ZINC000672622940    0.0800
     38 H38       -11.0639   -2.9439   60.9700 H       1  ZINC000672622940    0.0700
     39 H39        -9.0507    0.7732   59.8252 H       1  ZINC000672622940    0.0800
     40 H40        -8.0328    0.2722   58.4535 H       1  ZINC000672622940    0.0700
     41 H41        -9.5139    2.9304   58.6935 H       1  ZINC000672622940    0.0700
     42 H42        -7.7650    2.6921   58.9235 H       1  ZINC000672622940    0.0700
     43 H43        -8.2583    3.5133   56.6363 H       1  ZINC000672622940    0.0700
     44 H44        -7.5701    1.8724   56.5914 H       1  ZINC000672622940    0.0700
     45 H45        -9.2412    1.3116   54.1766 H       1  ZINC000672622940    0.4100
     46 H46        -6.6844    4.9320   53.0161 H       1  ZINC000672622940    0.0700
     47 H47        -7.3223    3.6492   54.0766 H       1  ZINC000672622940    0.1400
     48 H48        -5.0006    3.1634   53.2247 H       1  ZINC000672622940    0.0800
     49 H49        -6.1930    1.9301   52.7478 H       1  ZINC000672622940    0.0800
     50 H50        -5.2790    4.2697   51.0129 H       1  ZINC000672622940    0.0900
     51 H51        -0.4902    1.3031   51.1454 H       1  ZINC000672622940    0.1000
     52 H52        -0.5053    1.4920   49.3640 H       1  ZINC000672622940    0.1000
     53 H53         0.0204    3.6036   51.0977 H       1  ZINC000672622940    0.1100
     54 H54        -0.7510    3.8363   49.4933 H       1  ZINC000672622940    0.0900
     55 H55        -2.0329    3.7163   52.2393 H       1  ZINC000672622940    0.1000
     56 H56        -2.5216    4.6710   50.8077 H       1  ZINC000672622940    0.1000
     57 H57        -6.5567    3.0809   49.2388 H       1  ZINC000672622940    0.0800
     58 H58        -7.0934    1.8824   50.4412 H       1  ZINC000672622940    0.0800
     59 H59        -8.8462    3.5611   50.1667 H       1  ZINC000672622940    0.1000
     60 H60        -7.6797    4.8742   50.4704 H       1  ZINC000672622940    0.0800
     61 H61        -9.0589   -0.0966   56.2056 H       1  ZINC000672622940    0.0800
     62 H62       -10.8079    0.1416   55.9756 H       1  ZINC000672622940    0.0800
@<TRIPOS>BOND
     1     1     2    1
     2     1    33    1
     3     1    34    1
     4     1    35    1
     5     2     3    1
     6     2     4   am
     7     3    36    1
     8     3    37    1
     9     3    38    1
    10     4     5    2
    11     4     6    1
    12     6     7    1
    13     6    32    1
    14     6     8    1
    15     8     9    1
    16     8    39    1
    17     8    40    1
    18     9    10    1
    19     9    41    1
    20     9    42    1
    21    10    11    1
    22    10    43    1
    23    10    44    1
    24    11    12    1
    25    11    13    1
    26    11    32    1
    27    13    14   am
    28    13    45    1
    29    14    15    2
    30    14    16    1
    31    16    17    2
    32    16    18   am
    33    18    31    1
    34    18    19    1
    35    19    20    1
    36    19    46    1
    37    19    47    1
    38    20    21    1
    39    20    48    1
    40    20    49    1
    41    21    22    1
    42    21    30    1
    43    21    50    1
    44    22    29    1
    45    22    23    2
    46    23    24    1
    47    24    25    2
    48    25    29    1
    49    25    26    1
    50    26    27    1
    51    26    51    1
    52    26    52    1
    53    27    28    1
    54    27    53    1
    55    27    54    1
    56    28    29    1
    57    28    55    1
    58    28    56    1
    59    30    31    1
    60    30    57    1
    61    30    58    1
    62    31    59    1
    63    31    60    1
    64    32    61    1
    65    32    62    1
@<TRIPOS>SUBSTRUCTURE
     1 ZINC000672622940        1 TEMP              0 ****  ****    0 ROOT


##########                                Name:    ZINC001345966764
##########                DOCK_Rotatable_Bonds:                  10
##########                         Heavy_Atoms:                  22
##########                    Molecular_Weight:             333.258
##########                DOCK_Rotatable_Bonds:                  10
##########                       Formal_Charge:           0.0099997
##########                     HBond_Acceptors:                  11
##########                        HBond_Donors:                   4
##########                         Heavy_Atoms:                  22
##########                          Grid_Score:          -31.133207
##########                     Grid_vdw_energy:          -26.317295
##########                      Grid_es_energy:           -4.815913
##########           Internal_energy_repulsive:            8.161674

@<TRIPOS>MOLECULE
ZINC001345966764
 38 38 1 0 0
SMALL
USER_CHARGES


@<TRIPOS>ATOM
      1 N1          4.2414   -1.7691   52.0634 N.3     1  ZINC001345966764   -0.8400
      2 C2          3.5245   -0.5401   51.6977 C.3     1  ZINC001345966764    0.0200
      3 C3          4.5323    0.5858   51.4576 C.3     1  ZINC001345966764    0.2800
      4 F4          5.3798    0.6972   52.5651 F       1  ZINC001345966764   -0.1900
      5 F5          5.2903    0.2980   50.3174 F       1  ZINC001345966764   -0.1800
      6 C6          3.7843    1.9047   51.2531 C.3     1  ZINC001345966764    0.0800
      7 N7          2.4251    1.6273   50.7820 N.am    1  ZINC001345966764   -0.7000
      8 C8          2.1798    1.5128   49.4617 C.2     1  ZINC001345966764    0.5100
      9 O9          3.0844    1.6411   48.6631 O.2     1  ZINC001345966764   -0.5100
     10 C10         0.7936    1.2279   48.9811 C.2     1  ZINC001345966764    0.5100
     11 O11         0.6226    0.6814   47.9113 O.2     1  ZINC001345966764   -0.5100
     12 N12        -0.2665    1.5781   49.7360 N.am    1  ZINC001345966764   -0.7000
     13 C13        -1.6254    1.2973   49.2658 C.3     1  ZINC001345966764    0.1200
     14 C14        -2.5764    1.2341   50.4626 C.3     1  ZINC001345966764    0.0600
     15 H15        -2.1984    0.5369   51.2104 H       1  ZINC001345966764    0.0900
     16 C16        -2.7581    2.6384   51.0799 C.3     1  ZINC001345966764   -0.1400
     17 C17        -4.2451    2.6752   51.4982 C.3     1  ZINC001345966764   -0.1500
     18 C18        -4.7858    1.2886   51.0841 C.3     1  ZINC001345966764    0.0300
     19 H19        -4.7485    0.5995   51.9277 H       1  ZINC001345966764    0.1200
     20 C20        -6.2181    1.4104   50.5601 C.3     1  ZINC001345966764    0.4600
     21 F21        -6.2352    2.2479   49.4396 F       1  ZINC001345966764   -0.1700
     22 F22        -6.6932    0.1440   50.2029 F       1  ZINC001345966764   -0.1700
     23 F23        -7.0357    1.9505   51.5586 F       1  ZINC001345966764   -0.1700
     24 O24        -3.8989    0.8430   50.0337 O.3     1  ZINC001345966764   -0.3500
     25 H25         4.8212   -1.6214   52.8758 H       1  ZINC001345966764    0.3500
     26 H26         3.5982   -2.5322   52.2120 H       1  ZINC001345966764    0.3600
     27 H27         2.9487   -0.7123   50.7883 H       1  ZINC001345966764    0.1100
     28 H28         2.8506   -0.2581   52.5066 H       1  ZINC001345966764    0.0700
     29 H29         3.7379    2.4464   52.1978 H       1  ZINC001345966764    0.1100
     30 H30         4.3090    2.5091   50.5132 H       1  ZINC001345966764    0.1100
     31 H31         1.7018    1.5260   51.4202 H       1  ZINC001345966764    0.4200
     32 H32        -0.1300    2.0160   50.5907 H       1  ZINC001345966764    0.4200
     33 H33        -1.9461    2.0886   48.5882 H       1  ZINC001345966764    0.1000
     34 H34        -1.6380    0.3421   48.7408 H       1  ZINC001345966764    0.0900
     35 H35        -2.1134    2.7593   51.9504 H       1  ZINC001345966764    0.0900
     36 H36        -2.5504    3.4109   50.3394 H       1  ZINC001345966764    0.0900
     37 H37        -4.3354    2.8143   52.5755 H       1  ZINC001345966764    0.1000
     38 H38        -4.7725    3.4658   50.9645 H       1  ZINC001345966764    0.0900
@<TRIPOS>BOND
     1     1     2    1
     2     1    25    1
     3     1    26    1
     4     2     3    1
     5     2    27    1
     6     2    28    1
     7     3     4    1
     8     3     5    1
     9     3     6    1
    10     6     7    1
    11     6    29    1
    12     6    30    1
    13     7     8   am
    14     7    31    1
    15     8     9    2
    16     8    10    1
    17    10    11    2
    18    10    12   am
    19    12    13    1
    20    12    32    1
    21    13    14    1
    22    13    33    1
    23    13    34    1
    24    14    15    1
    25    14    24    1
    26    14    16    1
    27    16    17    1
    28    16    35    1
    29    16    36    1
    30    17    18    1
    31    17    37    1
    32    17    38    1
    33    18    19    1
    34    18    20    1
    35    18    24    1
    36    20    21    1
    37    20    22    1
    38    20    23    1
@<TRIPOS>SUBSTRUCTURE
     1 ZINC001345966764        1 TEMP              0 ****  ****    0 ROOT


##########                                Name:    ZINC000451500596
##########                DOCK_Rotatable_Bonds:                   7
##########                         Heavy_Atoms:                  25
##########                    Molecular_Weight:             365.497
##########                DOCK_Rotatable_Bonds:                   7
##########                       Formal_Charge:           0.0400004
##########                     HBond_Acceptors:                   7
##########                        HBond_Donors:                   2
##########                         Heavy_Atoms:                  25
##########                          Grid_Score:          -31.133017
##########                     Grid_vdw_energy:          -30.194609
##########                      Grid_es_energy:           -0.938407
##########           Internal_energy_repulsive:            9.916560

@<TRIPOS>MOLECULE
ZINC000451500596
 52 54 1 0 0
SMALL
USER_CHARGES


@<TRIPOS>ATOM
      1 C1          1.1967    2.3679   44.8050 C.3     1  ZINC000451500596   -0.6700
      2 S2          0.4784    1.2443   46.0347 S.o2    1  ZINC000451500596    2.6100
      3 O3         -0.8720    0.9453   45.7083 O.2     1  ZINC000451500596   -0.9500
      4 O4          1.3981    0.2125   46.3646 O.2     1  ZINC000451500596   -0.9600
      5 N5          0.3733    2.1541   47.4143 N.am    1  ZINC000451500596   -1.1200
      6 C6         -0.1712    1.5653   48.6403 C.3     1  ZINC000451500596    0.1200
      7 C7         -0.8538    2.6549   49.4698 C.3     1  ZINC000451500596   -0.1000
      8 H8         -1.6351    3.1368   48.8821 H       1  ZINC000451500596    0.0900
      9 C9          0.1849    3.7003   49.9260 C.3     1  ZINC000451500596   -0.1200
     10 C10        -0.2708    4.0903   51.3541 C.3     1  ZINC000451500596   -0.1300
     11 C11        -0.7603    2.7413   51.9371 C.3     1  ZINC000451500596   -0.1300
     12 C12        -1.4558    2.0449   50.7478 C.3     1  ZINC000451500596    0.1400
     13 H13        -1.2614    0.9728   50.7772 H       1  ZINC000451500596    0.1000
     14 N14        -2.8987    2.2945   50.7942 N.am    1  ZINC000451500596   -0.7200
     15 C15        -3.7614    1.3335   50.4089 C.2     1  ZINC000451500596    0.5300
     16 O16        -3.3433    0.2626   50.0223 O.2     1  ZINC000451500596   -0.5300
     17 C17        -5.2457    1.5894   50.4583 C.3     1  ZINC000451500596   -0.1300
     18 H18        -5.5973    1.9945   49.5094 H       1  ZINC000451500596    0.1000
     19 C19        -6.0145    0.2910   50.8189 C.3     1  ZINC000451500596   -0.1200
     20 C20        -7.3028    0.8593   51.4646 C.3     1  ZINC000451500596    0.0500
     21 N21        -6.8535    2.0470   52.2216 N.3     1  ZINC000451500596   -0.4900
     22 C22        -7.8322    3.0435   52.2166 C.ar    1  ZINC000451500596    0.0800
     23 C23        -8.3851    3.4704   51.0159 C.ar    1  ZINC000451500596   -0.0900
     24 C24        -9.3529    4.4556   51.0147 C.ar    1  ZINC000451500596   -0.1100
     25 C25        -9.7713    5.0174   52.2070 C.ar    1  ZINC000451500596   -0.1200
     26 C26        -9.2229    4.5949   53.4041 C.ar    1  ZINC000451500596   -0.1100
     27 C27        -8.2589    3.6061   53.4130 C.ar    1  ZINC000451500596   -0.1500
     28 C28        -5.5971    2.5408   51.6214 C.3     1  ZINC000451500596    0.0600
     29 H29         0.5427    3.2302   44.6749 H       1  ZINC000451500596    0.1300
     30 H30         2.1759    2.7029   45.1472 H       1  ZINC000451500596    0.1300
     31 H31         1.3031    1.8459   43.8541 H       1  ZINC000451500596    0.1300
     32 H32         0.6722    3.0769   47.4107 H       1  ZINC000451500596    0.4200
     33 H33        -0.8989    0.7961   48.3819 H       1  ZINC000451500596    0.0700
     34 H34         0.6375    1.1204   49.2200 H       1  ZINC000451500596    0.0900
     35 H35         1.1824    3.2615   49.9505 H       1  ZINC000451500596    0.0800
     36 H36         0.1655    4.5694   49.2687 H       1  ZINC000451500596    0.0700
     37 H37         0.5659    4.4806   51.9334 H       1  ZINC000451500596    0.0700
     38 H38        -1.0859    4.8129   51.3155 H       1  ZINC000451500596    0.0700
     39 H39         0.0846    2.1477   52.2862 H       1  ZINC000451500596    0.0800
     40 H40        -1.4694    2.9108   52.7472 H       1  ZINC000451500596    0.0700
     41 H41        -3.2330    3.1513   51.1022 H       1  ZINC000451500596    0.4000
     42 H42        -6.2480   -0.2859   49.9240 H       1  ZINC000451500596    0.0800
     43 H43        -5.4520   -0.3101   51.5333 H       1  ZINC000451500596    0.0800
     44 H44        -8.0177    1.1483   50.6942 H       1  ZINC000451500596    0.0600
     45 H45        -7.7453    0.1252   52.1379 H       1  ZINC000451500596    0.0900
     46 H46        -8.0583    3.0324   50.0843 H       1  ZINC000451500596    0.1300
     47 H47        -9.7832    4.7878   50.0815 H       1  ZINC000451500596    0.1300
     48 H48       -10.5277    5.7882   52.2032 H       1  ZINC000451500596    0.1200
     49 H49        -9.5519    5.0359   54.3335 H       1  ZINC000451500596    0.1200
     50 H50        -7.8311    3.2764   54.3482 H       1  ZINC000451500596    0.1200
     51 H51        -4.7997    2.5246   52.3644 H       1  ZINC000451500596    0.1000
     52 H52        -5.7381    3.5549   51.2477 H       1  ZINC000451500596    0.0700
@<TRIPOS>BOND
     1     1     2    1
     2     1    29    1
     3     1    30    1
     4     1    31    1
     5     2     3    2
     6     2     4    2
     7     2     5   am
     8     5     6    1
     9     5    32    1
    10     6     7    1
    11     6    33    1
    12     6    34    1
    13     7     8    1
    14     7    12    1
    15     7     9    1
    16     9    10    1
    17     9    35    1
    18     9    36    1
    19    10    11    1
    20    10    37    1
    21    10    38    1
    22    11    12    1
    23    11    39    1
    24    11    40    1
    25    12    13    1
    26    12    14    1
    27    14    15   am
    28    14    41    1
    29    15    16    2
    30    15    17    1
    31    17    18    1
    32    17    28    1
    33    17    19    1
    34    19    20    1
    35    19    42    1
    36    19    43    1
    37    20    21    1
    38    20    44    1
    39    20    45    1
    40    21    22    1
    41    21    28    1
    42    22    27   ar
    43    22    23   ar
    44    23    24   ar
    45    23    46    1
    46    24    25   ar
    47    24    47    1
    48    25    26   ar
    49    25    48    1
    50    26    27   ar
    51    26    49    1
    52    27    50    1
    53    28    51    1
    54    28    52    1
@<TRIPOS>SUBSTRUCTURE
     1 ZINC000451500596        1 TEMP              0 ****  ****    0 ROOT


##########                                Name:    ZINC000676564986
##########                DOCK_Rotatable_Bonds:                   5
##########                         Heavy_Atoms:                  25
##########                    Molecular_Weight:             347.444
##########                DOCK_Rotatable_Bonds:                   5
##########                       Formal_Charge:          -0.0100005
##########                     HBond_Acceptors:                   6
##########                        HBond_Donors:                   1
##########                         Heavy_Atoms:                  25
##########                          Grid_Score:          -31.132151
##########                     Grid_vdw_energy:          -30.204300
##########                      Grid_es_energy:           -0.927850
##########           Internal_energy_repulsive:            6.426766

@<TRIPOS>MOLECULE
ZINC000676564986
 42 45 1 0 0
SMALL
USER_CHARGES


@<TRIPOS>ATOM
      1 C1         -7.2500    1.3451   51.5038 C.3     1  ZINC000676564986    0.0800
      2 N2         -5.9187    0.9667   51.0233 N.pl3   1  ZINC000676564986   -0.4800
      3 C3         -5.5872   -0.2000   50.4010 C.2     1  ZINC000676564986    0.2500
      4 N4         -4.3187   -0.2040   50.1103 N.2     1  ZINC000676564986   -0.4600
      5 C5         -3.7570    0.9564   50.5265 C.ar    1  ZINC000676564986   -0.1100
      6 C6         -2.4609    1.4973   50.4855 C.ar    1  ZINC000676564986    0.5100
      7 N7         -1.4164    0.7904   49.9159 N.pl3   1  ZINC000676564986   -0.6900
      8 C8         -0.1581    1.4708   49.5993 C.3     1  ZINC000676564986    0.1700
      9 C9          0.1100    1.3681   48.1199 C.ar    1  ZINC000676564986   -0.0800
     10 C10         1.4049    1.2022   47.6633 C.ar    1  ZINC000676564986   -0.1100
     11 C11         1.6542    1.1078   46.3085 C.ar    1  ZINC000676564986   -0.0700
     12 C12         0.6022    1.1798   45.4034 C.ar    1  ZINC000676564986   -0.1300
     13 S13         0.9156    1.0592   43.6737 S.3     1  ZINC000676564986   -0.0100
     14 C14         1.8027    2.5417   43.3273 C.ar    1  ZINC000676564986   -0.1000
     15 C15         1.6105    3.6690   44.1169 C.ar    1  ZINC000676564986   -0.1200
     16 C16         2.3078    4.8288   43.8428 C.ar    1  ZINC000676564986   -0.1000
     17 C17         3.1966    4.8696   42.7840 C.ar    1  ZINC000676564986   -0.1200
     18 C18         3.3904    3.7497   41.9959 C.ar    1  ZINC000676564986   -0.1000
     19 C19         2.7004    2.5847   42.2674 C.ar    1  ZINC000676564986   -0.1000
     20 C20        -0.6977    1.3466   45.8658 C.ar    1  ZINC000676564986   -0.0700
     21 C21        -0.9402    1.4345   47.2223 C.ar    1  ZINC000676564986   -0.1100
     22 N22        -2.2614    2.7038   51.0062 N.ar    1  ZINC000676564986   -0.5900
     23 C23        -3.2521    3.3856   51.5513 C.ar    1  ZINC000676564986    0.3600
     24 N24        -4.4816    2.9189   51.6124 N.ar    1  ZINC000676564986   -0.5600
     25 C25        -4.7780    1.7240   51.1120 C.ar    1  ZINC000676564986    0.3000
     26 H26        -7.7896    1.8613   50.7098 H       1  ZINC000676564986    0.0800
     27 H27        -7.7997    0.4496   51.7939 H       1  ZINC000676564986    0.0900
     28 H28        -7.1512    2.0058   52.3650 H       1  ZINC000676564986    0.0900
     29 H29        -6.2757   -1.0027   50.1819 H       1  ZINC000676564986    0.2200
     30 H30        -1.5172   -0.1555   49.7262 H       1  ZINC000676564986    0.4200
     31 H31        -0.2313    2.5205   49.8834 H       1  ZINC000676564986    0.0800
     32 H32         0.6573    1.0014   50.1497 H       1  ZINC000676564986    0.0800
     33 H33         2.2220    1.1467   48.3673 H       1  ZINC000676564986    0.1300
     34 H34         2.6657    0.9786   45.9527 H       1  ZINC000676564986    0.1400
     35 H35         0.9164    3.6381   44.9437 H       1  ZINC000676564986    0.1200
     36 H36         2.1587    5.7054   44.4559 H       1  ZINC000676564986    0.1300
     37 H37         3.7403    5.7783   42.5717 H       1  ZINC000676564986    0.1300
     38 H38         4.0851    3.7850   41.1700 H       1  ZINC000676564986    0.1300
     39 H39         2.8525    1.7104   41.6518 H       1  ZINC000676564986    0.1300
     40 H40        -1.5177    1.4029   45.1652 H       1  ZINC000676564986    0.1300
     41 H41        -1.9500    1.5641   47.5823 H       1  ZINC000676564986    0.1300
     42 H42        -3.0460    4.3626   51.9629 H       1  ZINC000676564986    0.2000
@<TRIPOS>BOND
     1     1     2    1
     2     1    26    1
     3     1    27    1
     4     1    28    1
     5     2    25    1
     6     2     3    1
     7     3     4    2
     8     3    29    1
     9     4     5    1
    10     5    25   ar
    11     5     6   ar
    12     6     7    1
    13     6    22   ar
    14     7     8    1
    15     7    30    1
    16     8     9    1
    17     8    31    1
    18     8    32    1
    19     9    21   ar
    20     9    10   ar
    21    10    11   ar
    22    10    33    1
    23    11    12   ar
    24    11    34    1
    25    12    13    1
    26    12    20   ar
    27    13    14    1
    28    14    19   ar
    29    14    15   ar
    30    15    16   ar
    31    15    35    1
    32    16    17   ar
    33    16    36    1
    34    17    18   ar
    35    17    37    1
    36    18    19   ar
    37    18    38    1
    38    19    39    1
    39    20    21   ar
    40    20    40    1
    41    21    41    1
    42    22    23   ar
    43    23    24   ar
    44    23    42    1
    45    24    25   ar
@<TRIPOS>SUBSTRUCTURE
     1 ZINC000676564986        1 TEMP              0 ****  ****    0 ROOT


##########                                Name:    ZINC000265724350
##########                DOCK_Rotatable_Bonds:                   8
##########                         Heavy_Atoms:                  23
##########                    Molecular_Weight:              345.42
##########                DOCK_Rotatable_Bonds:                   8
##########                       Formal_Charge:          -0.0300002
##########                     HBond_Acceptors:                   9
##########                        HBond_Donors:                   2
##########                         Heavy_Atoms:                  23
##########                          Grid_Score:          -31.121410
##########                     Grid_vdw_energy:          -31.069050
##########                      Grid_es_energy:           -0.052361
##########           Internal_energy_repulsive:            5.931577

@<TRIPOS>MOLECULE
ZINC000265724350
 46 47 1 0 0
SMALL
USER_CHARGES


@<TRIPOS>ATOM
      1 C1         -6.8016    3.2396   49.6246 C.3     1  ZINC000265724350    0.0800
      2 N2         -6.4237    1.8261   49.5491 N.am    1  ZINC000265724350   -1.1100
      3 S3         -5.7807    1.0691   50.8742 S.o2    1  ZINC000265724350    2.7200
      4 O4         -6.6917    1.2877   51.9426 O.2     1  ZINC000265724350   -0.9300
      5 O5         -5.3841   -0.2257   50.4435 O.2     1  ZINC000265724350   -0.9300
      6 C6         -4.3013    1.9271   51.2982 C.2     1  ZINC000265724350   -0.5600
      7 C7         -4.2264    3.0294   52.0764 C.2     1  ZINC000265724350   -0.0900
      8 C8         -2.8712    3.3857   52.1585 C.2     1  ZINC000265724350   -0.1400
      9 C9         -2.1793    2.4714   51.4170 C.2     1  ZINC000265724350   -0.0200
     10 C10        -0.7269    2.4474   51.2149 C.2     1  ZINC000265724350    0.6000
     11 O11        -0.0097    3.1846   51.8656 O.2     1  ZINC000265724350   -0.5000
     12 N12        -0.1863    1.6090   50.3087 N.am    1  ZINC000265724350   -0.7100
     13 C13         1.2647    1.5838   50.1081 C.3     1  ZINC000265724350    0.1200
     14 C14         1.6347    2.5063   48.9449 C.3     1  ZINC000265724350   -0.1100
     15 H15         0.9028    3.3106   48.8719 H       1  ZINC000265724350    0.0800
     16 C16         3.0234    3.1009   49.1875 C.3     1  ZINC000265724350   -0.1400
     17 C17         1.6437    1.7050   47.6415 C.3     1  ZINC000265724350    0.0600
     18 N18         0.4607    2.0546   46.8438 N.3     1  ZINC000265724350   -0.5300
     19 C19        -0.1891    0.8494   46.3088 C.3     1  ZINC000265724350    0.0100
     20 C20        -1.4472    1.2545   45.5362 C.3     1  ZINC000265724350    0.0600
     21 O21        -1.0904    2.1799   44.5058 O.3     1  ZINC000265724350   -0.3900
     22 C22        -0.4557    3.3659   44.9915 C.3     1  ZINC000265724350    0.0600
     23 C23         0.8124    2.9821   45.7585 C.3     1  ZINC000265724350    0.0200
     24 O24        -3.0652    1.5909   50.9073 O.3     1  ZINC000265724350   -0.1100
     25 H25        -7.2031    3.5602   48.6633 H       1  ZINC000265724350    0.0900
     26 H26        -7.5591    3.3724   50.3971 H       1  ZINC000265724350    0.0600
     27 H27        -5.9240    3.8377   49.8696 H       1  ZINC000265724350    0.0700
     28 H28        -6.5501    1.3337   48.7230 H       1  ZINC000265724350    0.4200
     29 H29        -5.0536    3.5401   52.5466 H       1  ZINC000265724350    0.1800
     30 H30        -2.4562    4.2212   52.7026 H       1  ZINC000265724350    0.1700
     31 H31        -0.7580    1.0223   49.7893 H       1  ZINC000265724350    0.4100
     32 H32         1.7630    1.9253   51.0153 H       1  ZINC000265724350    0.0800
     33 H33         1.5823    0.5663   49.8801 H       1  ZINC000265724350    0.0700
     34 H34         3.0171    3.6718   50.1161 H       1  ZINC000265724350    0.0500
     35 H35         3.7554    2.2966   49.2604 H       1  ZINC000265724350    0.0600
     36 H36         3.2871    3.7581   48.3588 H       1  ZINC000265724350    0.0700
     37 H37         2.5455    1.9404   47.0764 H       1  ZINC000265724350    0.0800
     38 H38         1.6258    0.6394   47.8701 H       1  ZINC000265724350    0.0400
     39 H39         0.4982    0.3319   45.6395 H       1  ZINC000265724350    0.0400
     40 H40        -0.4639    0.1886   47.1310 H       1  ZINC000265724350    0.0900
     41 H41        -1.9009    0.3697   45.0898 H       1  ZINC000265724350    0.1000
     42 H42        -2.1571    1.7241   46.2173 H       1  ZINC000265724350    0.0600
     43 H43        -0.1924    4.0080   44.1511 H       1  ZINC000265724350    0.1000
     44 H44        -1.1368    3.8968   45.6566 H       1  ZINC000265724350    0.0600
     45 H45         1.2687    3.8781   46.1791 H       1  ZINC000265724350    0.0900
     46 H46         1.5157    2.4987   45.0804 H       1  ZINC000265724350    0.0400
@<TRIPOS>BOND
     1     1     2    1
     2     1    25    1
     3     1    26    1
     4     1    27    1
     5     2     3   am
     6     2    28    1
     7     3     4    2
     8     3     5    2
     9     3     6    1
    10     6    24    1
    11     6     7    2
    12     7     8    1
    13     7    29    1
    14     8     9    2
    15     8    30    1
    16     9    10    1
    17     9    24    1
    18    10    11    2
    19    10    12   am
    20    12    13    1
    21    12    31    1
    22    13    14    1
    23    13    32    1
    24    13    33    1
    25    14    15    1
    26    14    16    1
    27    14    17    1
    28    16    34    1
    29    16    35    1
    30    16    36    1
    31    17    18    1
    32    17    37    1
    33    17    38    1
    34    18    23    1
    35    18    19    1
    36    19    20    1
    37    19    39    1
    38    19    40    1
    39    20    21    1
    40    20    41    1
    41    20    42    1
    42    21    22    1
    43    22    23    1
    44    22    43    1
    45    22    44    1
    46    23    45    1
    47    23    46    1
@<TRIPOS>SUBSTRUCTURE
     1 ZINC000265724350        1 TEMP              0 ****  ****    0 ROOT


##########                                Name:    ZINC000970996691
##########                DOCK_Rotatable_Bonds:                   7
##########                         Heavy_Atoms:                  24
##########                    Molecular_Weight:             334.462
##########                DOCK_Rotatable_Bonds:                   7
##########                       Formal_Charge:          -0.0199999
##########                     HBond_Acceptors:                   6
##########                        HBond_Donors:                   0
##########                         Heavy_Atoms:                  24
##########                          Grid_Score:          -31.112734
##########                     Grid_vdw_energy:          -30.998724
##########                      Grid_es_energy:           -0.114009
##########           Internal_energy_repulsive:           12.315572

@<TRIPOS>MOLECULE
ZINC000970996691
 54 56 1 0 0
SMALL
USER_CHARGES


@<TRIPOS>ATOM
      1 C1         -6.9541    2.2125   50.2669 C.3     1  ZINC000970996691   -0.1500
      2 C2         -6.6347    1.0618   51.2232 C.3     1  ZINC000970996691   -0.1200
      3 C3         -5.3862    0.3244   50.7348 C.3     1  ZINC000970996691   -0.0300
      4 C4         -4.1847    1.2230   50.8760 C.2     1  ZINC000970996691    0.1800
      5 N5         -3.0453    1.1097   50.2369 N.2     1  ZINC000970996691   -0.4700
      6 C6         -2.2796    2.1230   50.6794 C.2     1  ZINC000970996691    0.1800
      7 C7         -0.8693    2.4304   50.2462 C.3     1  ZINC000970996691    0.1500
      8 N8         -0.8983    3.3499   49.1010 N.3     1  ZINC000970996691   -0.5200
      9 C9         -0.2575    4.6286   49.4361 C.3     1  ZINC000970996691    0.0200
     10 C10        -0.2714    2.7404   47.9205 C.3     1  ZINC000970996691    0.0700
     11 H11         0.7571    2.4492   48.1335 H       1  ZINC000970996691    0.0600
     12 C12        -1.0988    1.5295   47.4143 C.3     1  ZINC000970996691   -0.1300
     13 C13        -0.7442    1.4717   45.9134 C.3     1  ZINC000970996691    0.1000
     14 N14        -0.2704    2.8082   45.5252 N.am    1  ZINC000970996691   -0.6200
     15 C15         0.1545    3.1649   44.2968 C.2     1  ZINC000970996691    0.5300
     16 O16         0.1667    2.3498   43.3989 O.2     1  ZINC000970996691   -0.5300
     17 C17         0.6146    4.5767   44.0393 C.3     1  ZINC000970996691   -0.1000
     18 C18         2.1395    4.6432   44.1432 C.3     1  ZINC000970996691   -0.1100
     19 C19         2.6065    6.0765   43.8816 C.3     1  ZINC000970996691   -0.1200
     20 C20         2.1717    6.5066   42.4793 C.3     1  ZINC000970996691   -0.1200
     21 C21         0.6467    6.4401   42.3752 C.3     1  ZINC000970996691   -0.1200
     22 C22         0.1797    5.0068   42.6368 C.3     1  ZINC000970996691   -0.1000
     23 C23        -0.3373    3.6946   46.7019 C.3     1  ZINC000970996691    0.1200
     24 N24        -2.9794    2.7886   51.5488 N.2     1  ZINC000970996691   -0.3800
     25 O25        -4.0790    2.2914   51.6719 O.3     1  ZINC000970996691    0.0800
     26 H26        -6.1122    2.9041   50.2365 H       1  ZINC000970996691    0.0600
     27 H27        -7.1342    1.8153   49.2678 H       1  ZINC000970996691    0.0600
     28 H28        -7.8435    2.7379   50.6147 H       1  ZINC000970996691    0.0600
     29 H29        -6.4546    1.4590   52.2222 H       1  ZINC000970996691    0.0700
     30 H30        -7.4766    0.3702   51.2536 H       1  ZINC000970996691    0.0700
     31 H31        -5.2390   -0.5755   51.3320 H       1  ZINC000970996691    0.1100
     32 H32        -5.5130    0.0491   49.6879 H       1  ZINC000970996691    0.1000
     33 H33        -0.3288    2.8943   51.0712 H       1  ZINC000970996691    0.0700
     34 H34        -0.3684    1.5063   49.9576 H       1  ZINC000970996691    0.1100
     35 H35         0.7809    4.4521   49.7165 H       1  ZINC000970996691    0.0300
     36 H36        -0.2928    5.2905   48.5709 H       1  ZINC000970996691    0.0800
     37 H37        -0.7853    5.0920   50.2699 H       1  ZINC000970996691    0.0700
     38 H38        -0.7906    0.6138   47.9188 H       1  ZINC000970996691    0.0800
     39 H39        -2.1655    1.7066   47.5520 H       1  ZINC000970996691    0.0900
     40 H40         0.0428    0.7364   45.7465 H       1  ZINC000970996691    0.0700
     41 H41        -1.6289    1.2091   45.3333 H       1  ZINC000970996691    0.0700
     42 H42         0.1705    5.2439   44.7779 H       1  ZINC000970996691    0.0900
     43 H43         2.4493    4.3368   45.1424 H       1  ZINC000970996691    0.0700
     44 H44         2.5835    3.9759   43.4045 H       1  ZINC000970996691    0.0700
     45 H45         2.1625    6.7438   44.6203 H       1  ZINC000970996691    0.0600
     46 H46         3.6930    6.1239   43.9558 H       1  ZINC000970996691    0.0700
     47 H47         2.5044    7.5278   42.2929 H       1  ZINC000970996691    0.0600
     48 H48         2.6157    5.8393   41.7406 H       1  ZINC000970996691    0.0600
     49 H49         0.2027    7.1075   43.1139 H       1  ZINC000970996691    0.0600
     50 H50         0.3369    6.7466   41.3761 H       1  ZINC000970996691    0.0700
     51 H51         0.6237    4.3395   41.8981 H       1  ZINC000970996691    0.0800
     52 H52        -0.9068    4.9594   42.5627 H       1  ZINC000970996691    0.0600
     53 H53        -1.2753    4.2497   46.7059 H       1  ZINC000970996691    0.0800
     54 H54         0.5102    4.3800   46.7092 H       1  ZINC000970996691    0.0800
@<TRIPOS>BOND
     1     1     2    1
     2     1    26    1
     3     1    27    1
     4     1    28    1
     5     2     3    1
     6     2    29    1
     7     2    30    1
     8     3     4    1
     9     3    31    1
    10     3    32    1
    11     4    25    1
    12     4     5    2
    13     5     6    1
    14     6     7    1
    15     6    24    2
    16     7     8    1
    17     7    33    1
    18     7    34    1
    19     8     9    1
    20     8    10    1
    21     9    35    1
    22     9    36    1
    23     9    37    1
    24    10    11    1
    25    10    23    1
    26    10    12    1
    27    12    13    1
    28    12    38    1
    29    12    39    1
    30    13    14    1
    31    13    40    1
    32    13    41    1
    33    14    15   am
    34    14    23    1
    35    15    16    2
    36    15    17    1
    37    17    22    1
    38    17    18    1
    39    17    42    1
    40    18    19    1
    41    18    43    1
    42    18    44    1
    43    19    20    1
    44    19    45    1
    45    19    46    1
    46    20    21    1
    47    20    47    1
    48    20    48    1
    49    21    22    1
    50    21    49    1
    51    21    50    1
    52    22    51    1
    53    22    52    1
    54    23    53    1
    55    23    54    1
    56    24    25    1
@<TRIPOS>SUBSTRUCTURE
     1 ZINC000970996691        1 TEMP              0 ****  ****    0 ROOT


##########                                Name:    ZINC000277085192
##########                DOCK_Rotatable_Bonds:                   4
##########                         Heavy_Atoms:                  23
##########                    Molecular_Weight:             335.747
##########                DOCK_Rotatable_Bonds:                   4
##########                       Formal_Charge:         5.96046e-08
##########                     HBond_Acceptors:                   8
##########                        HBond_Donors:                   2
##########                         Heavy_Atoms:                  23
##########                          Grid_Score:          -31.097912
##########                     Grid_vdw_energy:          -27.355089
##########                      Grid_es_energy:           -3.742824
##########           Internal_energy_repulsive:            7.101881

@<TRIPOS>MOLECULE
ZINC000277085192
 37 39 1 0 0
SMALL
USER_CHARGES


@<TRIPOS>ATOM
      1 O1         -9.9009   -0.1014   59.9197 O.2     1  ZINC000277085192   -0.5000
      2 C2         -8.7822   -0.5491   59.7803 C.2     1  ZINC000277085192    0.5000
      3 C3         -8.4484   -1.3788   58.5675 C.3     1  ZINC000277085192    0.1100
      4 N4         -9.6828   -1.9100   57.9843 N.am    1  ZINC000277085192   -0.6000
      5 C5        -10.4190   -2.9620   58.6876 C.3     1  ZINC000277085192    0.1100
      6 C6        -11.9223   -2.7529   58.4916 C.3     1  ZINC000277085192   -0.1600
      7 C7        -12.1991   -2.4829   57.0339 C.2     1  ZINC000277085192    0.5200
      8 O8        -13.2261   -2.8813   56.5277 O.2     1  ZINC000277085192   -0.5000
      9 N9        -11.3059   -1.7990   56.2956 N.am    1  ZINC000277085192   -0.6700
     10 C10       -10.1263   -1.4212   56.8146 C.2     1  ZINC000277085192    0.7200
     11 O11        -9.4390   -0.6239   56.2070 O.2     1  ZINC000277085192   -0.5500
     12 N12        -7.8364   -0.2997   60.7074 N.am    1  ZINC000277085192   -0.6700
     13 C13        -8.1465    0.4712   61.8343 C.ar    1  ZINC000277085192    0.1400
     14 C14        -8.3334   -0.1404   63.0601 C.ar    1  ZINC000277085192   -0.0400
     15 C15        -8.6448    0.6317   64.1900 C.ar    1  ZINC000277085192   -0.1700
     16 C16        -8.7626    2.0162   64.0628 C.ar    1  ZINC000277085192   -0.0500
     17 C17        -8.5731    2.6164   62.8322 C.ar    1  ZINC000277085192   -0.0900
     18 C18        -8.2611    1.8536   61.7217 C.ar    1  ZINC000277085192   -0.0300
     19 Cl19       -8.0257    2.6201   60.1820 Cl      1  ZINC000277085192   -0.0500
     20 C20        -9.0997    2.6207   65.4050 C.3     1  ZINC000277085192   -0.0800
     21 C21        -9.1807    1.4516   66.3961 C.3     1  ZINC000277085192   -0.1700
     22 C22        -8.8859    0.2160   65.5812 C.2     1  ZINC000277085192    0.4100
     23 O23        -8.8530   -0.9217   65.9999 O.2     1  ZINC000277085192   -0.4300
     24 H24        -7.9369   -0.7578   57.8320 H       1  ZINC000277085192    0.1300
     25 H25        -7.7998   -2.2047   58.8596 H       1  ZINC000277085192    0.1200
     26 H26       -10.1326   -3.9349   58.2883 H       1  ZINC000277085192    0.0800
     27 H27       -10.1824   -2.9222   59.7509 H       1  ZINC000277085192    0.1000
     28 H28       -12.4585   -3.6489   58.8042 H       1  ZINC000277085192    0.1300
     29 H29       -12.2527   -1.9028   59.0885 H       1  ZINC000277085192    0.1200
     30 H30       -11.5188   -1.5729   55.3767 H       1  ZINC000277085192    0.4300
     31 H31        -6.9407   -0.6544   60.5940 H       1  ZINC000277085192    0.4200
     32 H32        -8.2400   -1.2128   63.1481 H       1  ZINC000277085192    0.1500
     33 H33        -8.6655    3.6883   62.7380 H       1  ZINC000277085192    0.1500
     34 H34        -8.3173    3.3161   65.7094 H       1  ZINC000277085192    0.1000
     35 H35       -10.0592    3.1352   65.3535 H       1  ZINC000277085192    0.1000
     36 H36        -8.4362    1.5716   67.1832 H       1  ZINC000277085192    0.1100
     37 H37       -10.1802    1.3905   66.8269 H       1  ZINC000277085192    0.1100
@<TRIPOS>BOND
     1     1     2    2
     2     2     3    1
     3     2    12   am
     4     3     4    1
     5     3    24    1
     6     3    25    1
     7     4    10   am
     8     4     5    1
     9     5     6    1
    10     5    26    1
    11     5    27    1
    12     6     7    1
    13     6    28    1
    14     6    29    1
    15     7     8    2
    16     7     9   am
    17     9    10   am
    18     9    30    1
    19    10    11    2
    20    12    13    1
    21    12    31    1
    22    13    18   ar
    23    13    14   ar
    24    14    15   ar
    25    14    32    1
    26    15    22    1
    27    15    16   ar
    28    16    17   ar
    29    16    20    1
    30    17    18   ar
    31    17    33    1
    32    18    19    1
    33    20    21    1
    34    20    34    1
    35    20    35    1
    36    21    22    1
    37    21    36    1
    38    21    37    1
    39    22    23    2
@<TRIPOS>SUBSTRUCTURE
     1 ZINC000277085192        1 TEMP              0 ****  ****    0 ROOT


##########                                Name:    ZINC001220212140
##########                DOCK_Rotatable_Bonds:                   6
##########                         Heavy_Atoms:                  28
##########                    Molecular_Weight:             379.459
##########                DOCK_Rotatable_Bonds:                   6
##########                       Formal_Charge:         -0.00999925
##########                     HBond_Acceptors:                   6
##########                        HBond_Donors:                   1
##########                         Heavy_Atoms:                  28
##########                          Grid_Score:          -31.064835
##########                     Grid_vdw_energy:          -29.934542
##########                      Grid_es_energy:           -1.130294
##########           Internal_energy_repulsive:           12.599368

@<TRIPOS>MOLECULE
ZINC001220212140
 53 56 1 0 0
SMALL
USER_CHARGES


@<TRIPOS>ATOM
      1 C1          4.0601    2.7082   50.0496 C.3     1  ZINC001220212140   -0.1700
      2 C2          3.5625    1.3398   50.5196 C.3     1  ZINC001220212140    0.0800
      3 H3          4.3962    0.7198   50.8491 H       1  ZINC001220212140    0.1200
      4 C4          2.5158    1.4953   51.6481 C.3     1  ZINC001220212140   -0.1100
      5 C5          1.2138    1.4959   50.8704 C.ar    1  ZINC001220212140   -0.1500
      6 C6         -0.0663    1.8674   51.2140 C.ar    1  ZINC001220212140   -0.0700
      7 C7         -1.0910    1.7685   50.2806 C.ar    1  ZINC001220212140    0.1400
      8 N8         -2.3962    2.1457   50.6245 N.am    1  ZINC001220212140   -0.6800
      9 C9         -3.4085    1.2654   50.4946 C.2     1  ZINC001220212140    0.7200
     10 O10        -3.1893    0.1439   50.0791 O.2     1  ZINC001220212140   -0.5700
     11 N11        -4.6637    1.6281   50.8253 N.am    1  ZINC001220212140   -0.6300
     12 C12        -5.8554    0.7719   50.7332 C.3     1  ZINC001220212140    0.0900
     13 C13        -7.0545    1.5994   51.2418 C.3     1  ZINC001220212140   -0.1100
     14 C14        -6.3797    2.6841   52.1224 C.3     1  ZINC001220212140   -0.1300
     15 H15        -6.1682    2.3010   53.1207 H       1  ZINC001220212140    0.1200
     16 C16        -7.2282    3.9276   52.1928 C.2     1  ZINC001220212140    0.5300
     17 O17        -7.4977    4.5359   51.1786 O.2     1  ZINC001220212140   -0.5100
     18 N18        -7.6875    4.3636   53.3824 N.am    1  ZINC001220212140   -0.5700
     19 C19        -8.5124    5.5723   53.4508 C.3     1  ZINC001220212140    0.0700
     20 C20        -7.3765    3.6617   54.5522 C.ar    1  ZINC001220212140    0.1400
     21 C21        -6.1318    3.8185   55.1478 C.ar    1  ZINC001220212140   -0.1100
     22 C22        -5.8279    3.1242   56.3024 C.ar    1  ZINC001220212140   -0.1100
     23 C23        -6.7614    2.2733   56.8652 C.ar    1  ZINC001220212140   -0.1200
     24 C24        -8.0015    2.1146   56.2744 C.ar    1  ZINC001220212140   -0.1100
     25 C25        -8.3140    2.8110   55.1234 C.ar    1  ZINC001220212140   -0.1200
     26 C26        -5.0683    2.9469   51.3452 C.3     1  ZINC001220212140    0.1400
     27 C27        -0.8142    1.2946   49.0057 C.ar    1  ZINC001220212140   -0.1100
     28 C28         0.4690    0.9201   48.6664 C.ar    1  ZINC001220212140   -0.1200
     29 C29         1.4987    1.0138   49.5990 C.ar    1  ZINC001220212140    0.0900
     30 O30         2.8194    0.6831   49.4788 O.3     1  ZINC001220212140   -0.3000
     31 H31         3.2135    3.3069   49.7135 H       1  ZINC001220212140    0.0600
     32 H32         4.5595    3.2163   50.8745 H       1  ZINC001220212140    0.0800
     33 H33         4.7617    2.5764   49.2259 H       1  ZINC001220212140    0.0700
     34 H34         2.5577    0.6518   52.3370 H       1  ZINC001220212140    0.0900
     35 H35         2.6526    2.4373   52.1792 H       1  ZINC001220212140    0.0900
     36 H36        -0.2740    2.2355   52.2079 H       1  ZINC001220212140    0.1400
     37 H37        -2.5712    3.0403   50.9561 H       1  ZINC001220212140    0.4100
     38 H38        -6.0211    0.4774   49.6968 H       1  ZINC001220212140    0.0700
     39 H39        -5.7249   -0.1132   51.3559 H       1  ZINC001220212140    0.0700
     40 H40        -7.5889    2.0563   50.4089 H       1  ZINC001220212140    0.1000
     41 H41        -7.7248    0.9805   51.8384 H       1  ZINC001220212140    0.0900
     42 H42        -9.5633    5.3012   53.3503 H       1  ZINC001220212140    0.0700
     43 H43        -8.3548    6.0660   54.4097 H       1  ZINC001220212140    0.0800
     44 H44        -8.2330    6.2491   52.6434 H       1  ZINC001220212140    0.0800
     45 H45        -5.4021    4.4824   54.7083 H       1  ZINC001220212140    0.1200
     46 H46        -4.8601    3.2458   56.7660 H       1  ZINC001220212140    0.1300
     47 H47        -6.5212    1.7313   57.7679 H       1  ZINC001220212140    0.1300
     48 H48        -8.7281    1.4487   56.7161 H       1  ZINC001220212140    0.1300
     49 H49        -9.2827    2.6867   54.6625 H       1  ZINC001220212140    0.1200
     50 H50        -4.3048    3.3456   52.0132 H       1  ZINC001220212140    0.0900
     51 H51        -5.2481    3.6354   50.5196 H       1  ZINC001220212140    0.0700
     52 H52        -1.6072    1.2184   48.2765 H       1  ZINC001220212140    0.1300
     53 H53         0.6763    0.5523   47.6723 H       1  ZINC001220212140    0.1300
@<TRIPOS>BOND
     1     1     2    1
     2     1    31    1
     3     1    32    1
     4     1    33    1
     5     2     3    1
     6     2    30    1
     7     2     4    1
     8     4     5    1
     9     4    34    1
    10     4    35    1
    11     5    29   ar
    12     5     6   ar
    13     6     7   ar
    14     6    36    1
    15     7     8    1
    16     7    27   ar
    17     8     9   am
    18     8    37    1
    19     9    10    2
    20     9    11   am
    21    11    26    1
    22    11    12    1
    23    12    13    1
    24    12    38    1
    25    12    39    1
    26    13    14    1
    27    13    40    1
    28    13    41    1
    29    14    15    1
    30    14    16    1
    31    14    26    1
    32    16    17    2
    33    16    18   am
    34    18    19    1
    35    18    20    1
    36    19    42    1
    37    19    43    1
    38    19    44    1
    39    20    25   ar
    40    20    21   ar
    41    21    22   ar
    42    21    45    1
    43    22    23   ar
    44    22    46    1
    45    23    24   ar
    46    23    47    1
    47    24    25   ar
    48    24    48    1
    49    25    49    1
    50    26    50    1
    51    26    51    1
    52    27    28   ar
    53    27    52    1
    54    28    29   ar
    55    28    53    1
    56    29    30    1
@<TRIPOS>SUBSTRUCTURE
     1 ZINC001220212140        1 TEMP              0 ****  ****    0 ROOT


##########                                Name:    ZINC000566738344
##########                DOCK_Rotatable_Bonds:                   5
##########                         Heavy_Atoms:                  23
##########                    Molecular_Weight:             352.478
##########                DOCK_Rotatable_Bonds:                   5
##########                       Formal_Charge:           0.0100005
##########                     HBond_Acceptors:                   7
##########                        HBond_Donors:                   0
##########                         Heavy_Atoms:                  23
##########                          Grid_Score:          -31.021910
##########                     Grid_vdw_energy:          -30.586437
##########                      Grid_es_energy:           -0.435473
##########           Internal_energy_repulsive:           20.366095

@<TRIPOS>MOLECULE
ZINC000566738344
 43 44 1 0 0
SMALL
USER_CHARGES


@<TRIPOS>ATOM
      1 C1         -5.9629    0.0808   50.7548 C.3     1  ZINC000566738344   -0.1300
      2 C2         -4.9224    1.1019   51.1364 C.ar    1  ZINC000566738344   -0.0100
      3 C3         -3.6255    0.9602   50.6990 C.ar    1  ZINC000566738344   -0.1000
      4 C4         -2.6632    1.9032   51.0516 C.ar    1  ZINC000566738344   -0.0500
      5 S5         -1.0035    1.7178   50.4899 S.3     1  ZINC000566738344   -0.0300
      6 C6         -1.0976    2.2465   48.7572 C.3     1  ZINC000566738344   -0.1200
      7 H7         -2.0978    2.0501   48.3711 H       1  ZINC000566738344    0.1200
      8 C8         -0.7999    3.7443   48.6640 C.3     1  ZINC000566738344   -0.1300
      9 C9         -0.0859    1.4817   47.9430 C.2     1  ZINC000566738344    0.5200
     10 O10         0.8092    0.8801   48.4978 O.2     1  ZINC000566738344   -0.5000
     11 N11        -0.1758    1.4663   46.5984 N.am    1  ZINC000566738344   -0.6000
     12 C12        -1.2559    2.1945   45.9281 C.3     1  ZINC000566738344    0.0600
     13 C13         0.8066    0.7215   45.8070 C.3     1  ZINC000566738344    0.1500
     14 H14         0.7379   -0.3405   46.0430 H       1  ZINC000566738344    0.1300
     15 C15         0.5339    0.9370   44.3080 C.3     1  ZINC000566738344   -0.1300
     16 C16         1.7799    0.4101   43.5503 C.3     1  ZINC000566738344   -0.5900
     17 S17         3.1645    1.0429   44.5711 S.o2    1  ZINC000566738344    2.4000
     18 O18         4.1389    0.0207   44.7285 O.2     1  ZINC000566738344   -0.9300
     19 O19         3.5533    2.3241   44.0950 O.2     1  ZINC000566738344   -0.9300
     20 C20         2.2252    1.2328   46.1271 C.3     1  ZINC000566738344   -0.6200
     21 C21        -3.0099    2.9923   51.8468 C.ar    1  ZINC000566738344   -0.1400
     22 C22        -4.3053    3.1397   52.2875 C.ar    1  ZINC000566738344   -0.0400
     23 C23        -5.2750    2.1976   51.9309 C.ar    1  ZINC000566738344   -0.0400
     24 C24        -6.6238    2.3480   52.3878 C.1     1  ZINC000566738344    0.2500
     25 N25        -7.6939    2.4673   52.7502 N.1     1  ZINC000566738344   -0.4100
     26 H26        -6.4351    0.3760   49.8178 H       1  ZINC000566738344    0.0800
     27 H27        -5.4885   -0.8928   50.6316 H       1  ZINC000566738344    0.0800
     28 H28        -6.7177    0.0207   51.5389 H       1  ZINC000566738344    0.0700
     29 H29        -3.3536    0.1167   50.0819 H       1  ZINC000566738344    0.1400
     30 H30         0.2308    3.9295   48.9665 H       1  ZINC000566738344    0.0800
     31 H31        -0.9430    4.0800   47.6369 H       1  ZINC000566738344    0.0800
     32 H32        -1.4755    4.2906   49.3222 H       1  ZINC000566738344    0.0900
     33 H33        -0.9291    3.2118   45.7125 H       1  ZINC000566738344    0.0700
     34 H34        -1.5108    1.6896   44.9963 H       1  ZINC000566738344    0.0800
     35 H35        -2.1314    2.2238   46.5767 H       1  ZINC000566738344    0.0800
     36 H36        -0.3512    0.3774   44.0053 H       1  ZINC000566738344    0.1100
     37 H37         0.3934    1.9982   44.1029 H       1  ZINC000566738344    0.0900
     38 H38         1.7848   -0.6795   43.5243 H       1  ZINC000566738344    0.1400
     39 H39         1.8226    0.8223   42.5421 H       1  ZINC000566738344    0.1400
     40 H40         2.1932    2.2811   46.4243 H       1  ZINC000566738344    0.1400
     41 H41         2.6734    0.6284   46.9158 H       1  ZINC000566738344    0.1500
     42 H42        -2.2614    3.7221   52.1183 H       1  ZINC000566738344    0.1200
     43 H43        -4.5735    3.9845   52.9046 H       1  ZINC000566738344    0.1400
@<TRIPOS>BOND
     1     1     2    1
     2     1    26    1
     3     1    27    1
     4     1    28    1
     5     2    23   ar
     6     2     3   ar
     7     3     4   ar
     8     3    29    1
     9     4     5    1
    10     4    21   ar
    11     5     6    1
    12     6     7    1
    13     6     8    1
    14     6     9    1
    15     8    30    1
    16     8    31    1
    17     8    32    1
    18     9    10    2
    19     9    11   am
    20    11    12    1
    21    11    13    1
    22    12    33    1
    23    12    34    1
    24    12    35    1
    25    13    14    1
    26    13    20    1
    27    13    15    1
    28    15    16    1
    29    15    36    1
    30    15    37    1
    31    16    17    1
    32    16    38    1
    33    16    39    1
    34    17    18    2
    35    17    19    2
    36    17    20    1
    37    20    40    1
    38    20    41    1
    39    21    22   ar
    40    21    42    1
    41    22    23   ar
    42    22    43    1
    43    23    24    1
    44    24    25    3
@<TRIPOS>SUBSTRUCTURE
     1 ZINC000566738344        1 TEMP              0 ****  ****    0 ROOT


##########                                Name:    ZINC000457806032
##########                DOCK_Rotatable_Bonds:                   8
##########                         Heavy_Atoms:                  24
##########                    Molecular_Weight:             387.911
##########                DOCK_Rotatable_Bonds:                   8
##########                       Formal_Charge:        -1.49012e-07
##########                     HBond_Acceptors:                   9
##########                        HBond_Donors:                   2
##########                         Heavy_Atoms:                  24
##########                          Grid_Score:          -31.006590
##########                     Grid_vdw_energy:          -29.994753
##########                      Grid_es_energy:           -1.011838
##########           Internal_energy_repulsive:            6.154063

@<TRIPOS>MOLECULE
ZINC000457806032
 42 43 1 0 0
SMALL
USER_CHARGES


@<TRIPOS>ATOM
      1 C1        -10.7882    3.0288   51.4845 C.3     1  ZINC000457806032    0.0800
      2 N2        -10.4486    2.0329   52.5040 N.am    1  ZINC000457806032   -1.0100
      3 C3        -11.3266    0.8810   52.7238 C.3     1  ZINC000457806032    0.0900
      4 S4         -9.0721    2.2092   53.4077 S.o2    1  ZINC000457806032    2.7900
      5 O5         -9.1301    3.5096   53.9775 O.2     1  ZINC000457806032   -0.9700
      6 O6         -8.9473    1.0254   54.1837 O.2     1  ZINC000457806032   -0.9700
      7 N7         -7.7929    2.2160   52.3560 N.am    1  ZINC000457806032   -1.1300
      8 C8         -7.5468    1.0571   51.4943 C.3     1  ZINC000457806032    0.1100
      9 C9         -6.8266    1.5106   50.2230 C.3     1  ZINC000457806032    0.1100
     10 N10        -5.5285    2.0899   50.5774 N.am    1  ZINC000457806032   -0.7300
     11 C11        -4.4258    1.3152   50.5906 C.2     1  ZINC000457806032    0.5800
     12 O12        -4.5081    0.1352   50.3069 O.2     1  ZINC000457806032   -0.5300
     13 C13        -3.1215    1.8971   50.9485 C.2     1  ZINC000457806032   -0.1500
     14 C14        -2.9921    2.9944   51.7454 C.2     1  ZINC000457806032   -0.2200
     15 S15        -1.3463    3.3936   51.9515 S.3     1  ZINC000457806032    0.2400
     16 C16        -0.8346    2.0508   50.9410 C.2     1  ZINC000457806032   -0.1700
     17 C17         0.5702    1.7159   50.6218 C.ar    1  ZINC000457806032   -0.0100
     18 C18         0.8995    1.1990   49.3682 C.ar    1  ZINC000457806032   -0.0900
     19 C19         2.2114    0.8884   49.0762 C.ar    1  ZINC000457806032   -0.1000
     20 C20         3.2005    1.0881   50.0244 C.ar    1  ZINC000457806032   -0.0300
     21 Cl21        4.8493    0.6944   49.6499 Cl      1  ZINC000457806032   -0.0600
     22 C22         2.8798    1.6011   51.2698 C.ar    1  ZINC000457806032   -0.1000
     23 C23         1.5721    1.9208   51.5712 C.ar    1  ZINC000457806032   -0.1000
     24 C24        -1.9069    1.3702   50.5061 C.2     1  ZINC000457806032   -0.0700
     25 H25       -11.4005    3.8120   51.9315 H       1  ZINC000457806032    0.0600
     26 H26        -9.8732    3.4664   51.0851 H       1  ZINC000457806032    0.0800
     27 H27       -11.3434    2.5489   50.6785 H       1  ZINC000457806032    0.0800
     28 H28       -11.0163    0.0592   52.0786 H       1  ZINC000457806032    0.0600
     29 H29       -11.2624    0.5689   53.7662 H       1  ZINC000457806032    0.0700
     30 H30       -12.3546    1.1579   52.4903 H       1  ZINC000457806032    0.0700
     31 H31        -7.2066    2.9874   52.3106 H       1  ZINC000457806032    0.4200
     32 H32        -6.9267    0.3348   52.0252 H       1  ZINC000457806032    0.0700
     33 H33        -8.4970    0.5939   51.2281 H       1  ZINC000457806032    0.0900
     34 H34        -6.6750    0.6541   49.5661 H       1  ZINC000457806032    0.0800
     35 H35        -7.4308    2.2591   49.7104 H       1  ZINC000457806032    0.0800
     36 H36        -5.4627    3.0312   50.8024 H       1  ZINC000457806032    0.4000
     37 H37        -3.8164    3.5359   52.1854 H       1  ZINC000457806032    0.1700
     38 H38         0.1287    1.0422   48.6281 H       1  ZINC000457806032    0.1400
     39 H39         2.4675    0.4884   48.1062 H       1  ZINC000457806032    0.1400
     40 H40         3.6554    1.7547   52.0055 H       1  ZINC000457806032    0.1400
     41 H41         1.3231    2.3212   52.5429 H       1  ZINC000457806032    0.1300
     42 H42        -1.8368    0.5018   49.8678 H       1  ZINC000457806032    0.1600
@<TRIPOS>BOND
     1     1     2    1
     2     1    25    1
     3     1    26    1
     4     1    27    1
     5     2     3    1
     6     2     4   am
     7     3    28    1
     8     3    29    1
     9     3    30    1
    10     4     5    2
    11     4     6    2
    12     4     7   am
    13     7     8    1
    14     7    31    1
    15     8     9    1
    16     8    32    1
    17     8    33    1
    18     9    10    1
    19     9    34    1
    20     9    35    1
    21    10    11   am
    22    10    36    1
    23    11    12    2
    24    11    13    1
    25    13    24    1
    26    13    14    2
    27    14    15    1
    28    14    37    1
    29    15    16    1
    30    16    17    1
    31    16    24    2
    32    17    23   ar
    33    17    18   ar
    34    18    19   ar
    35    18    38    1
    36    19    20   ar
    37    19    39    1
    38    20    21    1
    39    20    22   ar
    40    22    23   ar
    41    22    40    1
    42    23    41    1
    43    24    42    1
@<TRIPOS>SUBSTRUCTURE
     1 ZINC000457806032        1 TEMP              0 ****  ****    0 ROOT


##########                                Name:    ZINC000846412382
##########                DOCK_Rotatable_Bonds:                   6
##########                         Heavy_Atoms:                  26
##########                    Molecular_Weight:             370.475
##########                DOCK_Rotatable_Bonds:                   6
##########                       Formal_Charge:               -0.03
##########                     HBond_Acceptors:                   7
##########                        HBond_Donors:                   4
##########                         Heavy_Atoms:                  26
##########                          Grid_Score:          -31.006323
##########                     Grid_vdw_energy:          -31.503744
##########                      Grid_es_energy:            0.497422
##########           Internal_energy_repulsive:           23.796383

@<TRIPOS>MOLECULE
ZINC000846412382
 48 50 1 0 0
SMALL
USER_CHARGES


@<TRIPOS>ATOM
      1 C1         -2.7980    3.9439   52.0556 C.3     1  ZINC000846412382   -0.1400
      2 C2         -3.5243    2.7514   51.4888 C.2     1  ZINC000846412382    0.0300
      3 C3         -2.9320    1.8813   50.6611 C.2     1  ZINC000846412382   -0.2700
      4 C4         -1.5378    1.9734   50.2109 C.2     1  ZINC000846412382    0.6000
      5 O5         -0.6312    1.8923   51.0182 O.2     1  ZINC000846412382   -0.5200
      6 N6         -1.2621    2.1479   48.9032 N.am    1  ZINC000846412382   -0.7100
      7 C7          0.1293    2.2416   48.4541 C.3     1  ZINC000846412382    0.1200
      8 H8          0.7157    2.7810   49.1980 H       1  ZINC000846412382    0.1000
      9 C9          0.7031    0.8346   48.2748 C.3     1  ZINC000846412382   -0.1700
     10 C10         0.1855    2.9891   47.1204 C.3     1  ZINC000846412382    0.1700
     11 C11         1.5212    3.7265   47.0050 C.3     1  ZINC000846412382   -0.1400
     12 O12        -0.8862    3.9322   47.0573 O.3     1  ZINC000846412382   -0.5500
     13 C13         0.0558    2.0045   45.9869 C.ar    1  ZINC000846412382   -0.1200
     14 C14         1.1567    1.6961   45.2098 C.ar    1  ZINC000846412382   -0.1100
     15 C15         1.0376    0.7931   44.1700 C.ar    1  ZINC000846412382   -0.1200
     16 C16        -0.1821    0.1980   43.9076 C.ar    1  ZINC000846412382   -0.1200
     17 C17        -1.2829    0.5058   44.6853 C.ar    1  ZINC000846412382   -0.1200
     18 C18        -1.1628    1.4056   45.7277 C.ar    1  ZINC000846412382   -0.1000
     19 S19        -4.0525    0.6152   50.1887 S.3     1  ZINC000846412382    0.2000
     20 C20        -5.3375    1.3224   51.1585 C.ar    1  ZINC000846412382    0.1400
     21 N21        -6.6039    0.9409   51.3600 N.ar    1  ZINC000846412382   -0.5300
     22 C22        -7.4042    1.6316   52.1394 C.ar    1  ZINC000846412382    0.3900
     23 C23        -8.8214    1.1569   52.3320 C.3     1  ZINC000846412382   -0.0900
     24 N24        -7.0084    2.7279   52.7603 N.ar    1  ZINC000846412382   -0.5800
     25 C25        -5.7736    3.1873   52.6252 C.ar    1  ZINC000846412382    0.5100
     26 N26        -5.3768    4.3347   53.2816 N.pl3   1  ZINC000846412382   -0.8300
     27 C27        -4.8606    2.4759   51.7966 C.ar    1  ZINC000846412382   -0.2500
     28 H28        -2.4026    3.6941   53.0402 H       1  ZINC000846412382    0.0800
     29 H29        -1.9770    4.2179   51.3932 H       1  ZINC000846412382    0.1100
     30 H30        -3.4892    4.7822   52.1436 H       1  ZINC000846412382    0.0700
     31 H31        -1.9848    2.2114   48.2593 H       1  ZINC000846412382    0.4000
     32 H32         0.1168    0.2952   47.5309 H       1  ZINC000846412382    0.0600
     33 H33         1.7383    0.9043   47.9407 H       1  ZINC000846412382    0.0800
     34 H34         0.6630    0.3021   49.2250 H       1  ZINC000846412382    0.0700
     35 H35         2.3387    3.0072   47.0530 H       1  ZINC000846412382    0.0700
     36 H36         1.5612    4.2591   46.0549 H       1  ZINC000846412382    0.0700
     37 H37         1.6150    4.4386   47.8249 H       1  ZINC000846412382    0.0700
     38 H38        -1.7567    3.5303   46.9310 H       1  ZINC000846412382    0.3800
     39 H39         2.1096    2.1611   45.4149 H       1  ZINC000846412382    0.1300
     40 H40         1.8975    0.5527   43.5625 H       1  ZINC000846412382    0.1200
     41 H41        -0.2753   -0.5070   43.0948 H       1  ZINC000846412382    0.1200
     42 H42        -2.2359    0.0411   44.4800 H       1  ZINC000846412382    0.1200
     43 H43        -2.0228    1.6460   46.3353 H       1  ZINC000846412382    0.1300
     44 H44        -8.8648    0.4787   53.1843 H       1  ZINC000846412382    0.0900
     45 H45        -9.4697    2.0136   52.5160 H       1  ZINC000846412382    0.0900
     46 H46        -9.1549    0.6351   51.4351 H       1  ZINC000846412382    0.0900
     47 H47        -6.0396    4.9793   53.5753 H       1  ZINC000846412382    0.4100
     48 H48        -4.4353    4.4965   53.4493 H       1  ZINC000846412382    0.4200
@<TRIPOS>BOND
     1     1     2    1
     2     1    28    1
     3     1    29    1
     4     1    30    1
     5     2    27    1
     6     2     3    2
     7     3     4    1
     8     3    19    1
     9     4     5    2
    10     4     6   am
    11     6     7    1
    12     6    31    1
    13     7     8    1
    14     7     9    1
    15     7    10    1
    16     9    32    1
    17     9    33    1
    18     9    34    1
    19    10    11    1
    20    10    12    1
    21    10    13    1
    22    11    35    1
    23    11    36    1
    24    11    37    1
    25    12    38    1
    26    13    18   ar
    27    13    14   ar
    28    14    15   ar
    29    14    39    1
    30    15    16   ar
    31    15    40    1
    32    16    17   ar
    33    16    41    1
    34    17    18   ar
    35    17    42    1
    36    18    43    1
    37    19    20    1
    38    20    27   ar
    39    20    21   ar
    40    21    22   ar
    41    22    23    1
    42    22    24   ar
    43    23    44    1
    44    23    45    1
    45    23    46    1
    46    24    25   ar
    47    25    26    1
    48    25    27   ar
    49    26    47    1
    50    26    48    1
@<TRIPOS>SUBSTRUCTURE
     1 ZINC000846412382        1 TEMP              0 ****  ****    0 ROOT


##########                                Name:    ZINC000790205345
##########                DOCK_Rotatable_Bonds:                   7
##########                         Heavy_Atoms:                  28
##########                    Molecular_Weight:             382.459
##########                DOCK_Rotatable_Bonds:                   7
##########                       Formal_Charge:          -0.0299997
##########                     HBond_Acceptors:                   6
##########                        HBond_Donors:                   0
##########                         Heavy_Atoms:                  28
##########                          Grid_Score:          -31.002697
##########                     Grid_vdw_energy:          -31.775286
##########                      Grid_es_energy:            0.772590
##########           Internal_energy_repulsive:           51.269157

@<TRIPOS>MOLECULE
ZINC000790205345
 54 56 1 0 0
SMALL
USER_CHARGES


@<TRIPOS>ATOM
      1 C1         -7.9272    1.6872   52.5244 C.3     1  ZINC000790205345   -0.1100
      2 C2         -6.5672    1.8359   51.8923 C.ar    1  ZINC000790205345   -0.1300
      3 C3         -6.1807    0.9802   50.8777 C.ar    1  ZINC000790205345   -0.0800
      4 C4         -4.9346    1.1146   50.2962 C.ar    1  ZINC000790205345   -0.2100
      5 C5         -4.0712    2.1093   50.7313 C.ar    1  ZINC000790205345    0.1300
      6 O6         -2.8451    2.2440   50.1607 O.3     1  ZINC000790205345   -0.2900
      7 C7         -2.0252    1.0750   50.1014 C.3     1  ZINC000790205345    0.0400
      8 C8         -0.5734    1.4791   50.1048 C.2     1  ZINC000790205345    0.5200
      9 O9          0.0719    1.4140   51.1296 O.2     1  ZINC000790205345   -0.5100
     10 N10         0.0080    1.9129   48.9689 N.am    1  ZINC000790205345   -0.6100
     11 C11         1.4198    2.3040   48.9718 C.3     1  ZINC000790205345    0.0700
     12 C12        -0.7718    1.9933   47.7313 C.3     1  ZINC000790205345    0.1800
     13 H13        -1.8309    1.8757   47.9609 H       1  ZINC000790205345    0.1200
     14 C14        -0.3303    0.8817   46.7772 C.3     1  ZINC000790205345   -0.1600
     15 C15        -0.5447    3.3335   47.0806 C.ar    1  ZINC000790205345   -0.0700
     16 C16        -0.6640    4.4920   47.8256 C.ar    1  ZINC000790205345   -0.1300
     17 C17        -0.4568    5.7239   47.2319 C.ar    1  ZINC000790205345   -0.0900
     18 C18        -0.1295    5.8001   45.8925 C.ar    1  ZINC000790205345   -0.1500
     19 C19        -0.0085    4.6381   45.1415 C.ar    1  ZINC000790205345    0.1800
     20 N20         0.3234    4.7121   43.7839 N.am    1  ZINC000790205345   -0.5700
     21 C21         0.5753    5.9503   43.0310 C.3     1  ZINC000790205345    0.0600
     22 C22         0.8919    5.4558   41.6065 C.3     1  ZINC000790205345    0.0400
     23 O23         0.7864    4.0059   41.7048 O.3     1  ZINC000790205345   -0.3200
     24 C24         0.4694    3.6659   42.9592 C.2     1  ZINC000790205345    0.6400
     25 O25         0.3193    2.5141   43.3164 O.2     1  ZINC000790205345   -0.5000
     26 C26        -0.2120    3.4027   45.7417 C.ar    1  ZINC000790205345   -0.1400
     27 C27        -4.4615    2.9670   51.7498 C.ar    1  ZINC000790205345   -0.1500
     28 C28        -5.7104    2.8317   52.3242 C.ar    1  ZINC000790205345   -0.0500
     29 C29        -6.1354    3.7631   53.4301 C.3     1  ZINC000790205345   -0.1200
     30 H30        -8.6498    2.2939   51.9785 H       1  ZINC000790205345    0.0700
     31 H31        -8.2314    0.6411   52.4901 H       1  ZINC000790205345    0.0600
     32 H32        -7.8839    2.0192   53.5617 H       1  ZINC000790205345    0.0700
     33 H33        -6.8531    0.2056   50.5396 H       1  ZINC000790205345    0.1300
     34 H34        -4.6328    0.4456   49.5040 H       1  ZINC000790205345    0.1300
     35 H35        -2.2288    0.4442   50.9668 H       1  ZINC000790205345    0.1000
     36 H36        -2.2464    0.5220   49.1886 H       1  ZINC000790205345    0.0900
     37 H37         2.0423    1.4189   48.8415 H       1  ZINC000790205345    0.0600
     38 H38         1.6051    3.0020   48.1553 H       1  ZINC000790205345    0.0800
     39 H39         1.6624    2.7823   49.9207 H       1  ZINC000790205345    0.0700
     40 H40         0.7287    0.9993   46.5476 H       1  ZINC000790205345    0.0600
     41 H41        -0.4947   -0.0876   47.2478 H       1  ZINC000790205345    0.0700
     42 H42        -0.9106    0.9415   45.8564 H       1  ZINC000790205345    0.0800
     43 H43        -0.9198    4.4350   48.8733 H       1  ZINC000790205345    0.1300
     44 H44        -0.5514    6.6271   47.8163 H       1  ZINC000790205345    0.1300
     45 H45         0.0317    6.7623   45.4294 H       1  ZINC000790205345    0.1300
     46 H46        -0.3117    6.5838   43.0281 H       1  ZINC000790205345    0.1000
     47 H47         1.4280    6.4856   43.4488 H       1  ZINC000790205345    0.1000
     48 H48         0.1624    5.8446   40.8960 H       1  ZINC000790205345    0.1100
     49 H49         1.9016    5.7465   41.3166 H       1  ZINC000790205345    0.1100
     50 H50        -0.1183    2.4973   45.1604 H       1  ZINC000790205345    0.1600
     51 H51        -3.7911    3.7420   52.0905 H       1  ZINC000790205345    0.1300
     52 H52        -6.6279    4.6357   53.0010 H       1  ZINC000790205345    0.0700
     53 H53        -6.8269    3.2459   54.0952 H       1  ZINC000790205345    0.0700
     54 H54        -5.2585    4.0816   53.9939 H       1  ZINC000790205345    0.0700
@<TRIPOS>BOND
     1     1     2    1
     2     1    30    1
     3     1    31    1
     4     1    32    1
     5     2    28   ar
     6     2     3   ar
     7     3     4   ar
     8     3    33    1
     9     4     5   ar
    10     4    34    1
    11     5     6    1
    12     5    27   ar
    13     6     7    1
    14     7     8    1
    15     7    35    1
    16     7    36    1
    17     8     9    2
    18     8    10   am
    19    10    11    1
    20    10    12    1
    21    11    37    1
    22    11    38    1
    23    11    39    1
    24    12    13    1
    25    12    14    1
    26    12    15    1
    27    14    40    1
    28    14    41    1
    29    14    42    1
    30    15    26   ar
    31    15    16   ar
    32    16    17   ar
    33    16    43    1
    34    17    18   ar
    35    17    44    1
    36    18    19   ar
    37    18    45    1
    38    19    20    1
    39    19    26   ar
    40    20    24   am
    41    20    21    1
    42    21    22    1
    43    21    46    1
    44    21    47    1
    45    22    23    1
    46    22    48    1
    47    22    49    1
    48    23    24    1
    49    24    25    2
    50    26    50    1
    51    27    28   ar
    52    27    51    1
    53    28    29    1
    54    29    52    1
    55    29    53    1
    56    29    54    1
@<TRIPOS>SUBSTRUCTURE
     1 ZINC000790205345        1 TEMP              0 ****  ****    0 ROOT


##########                                Name:    ZINC001082278299
##########                DOCK_Rotatable_Bonds:                   9
##########                         Heavy_Atoms:                  25
##########                    Molecular_Weight:              346.47
##########                DOCK_Rotatable_Bonds:                   9
##########                       Formal_Charge:           0.0200001
##########                     HBond_Acceptors:                   5
##########                        HBond_Donors:                   1
##########                         Heavy_Atoms:                  25
##########                          Grid_Score:          -30.989109
##########                     Grid_vdw_energy:          -30.332596
##########                      Grid_es_energy:           -0.656512
##########           Internal_energy_repulsive:           83.424057

@<TRIPOS>MOLECULE
ZINC001082278299
 55 57 1 0 0
SMALL
USER_CHARGES


@<TRIPOS>ATOM
      1 C1          2.4542    2.6675   45.2195 C.3     1  ZINC001082278299   -0.1300
      2 C2          1.8175    1.9364   44.0658 C.2     1  ZINC001082278299    0.0000
      3 C3          0.5257    1.6231   44.1085 C.2     1  ZINC001082278299   -0.2300
      4 C4         -0.2817    1.9900   45.2820 C.2     1  ZINC001082278299    0.5400
      5 O5         -0.9505    3.0056   45.2665 O.2     1  ZINC001082278299   -0.5300
      6 N6         -0.2804    1.2007   46.3745 N.am    1  ZINC001082278299   -0.7400
      7 C7         -1.0861    1.5653   47.5425 C.3     1  ZINC001082278299    0.1300
      8 C8         -0.1935    2.2369   48.5880 C.3     1  ZINC001082278299    0.1400
      9 H9          0.1700    3.1888   48.2009 H       1  ZINC001082278299    0.0800
     10 C10         0.9952    1.3258   48.9100 C.3     1  ZINC001082278299   -0.1300
     11 C11         1.8068    1.9379   50.0540 C.3     1  ZINC001082278299   -0.1200
     12 C12         0.9293    2.0465   51.3031 C.3     1  ZINC001082278299   -0.1400
     13 C13        -0.2601    2.9658   51.0083 C.3     1  ZINC001082278299    0.1100
     14 N14        -0.9633    2.4671   49.8181 N.am    1  ZINC001082278299   -0.6100
     15 C15        -2.2878    2.2208   49.8560 C.2     1  ZINC001082278299    0.5100
     16 O16        -2.8567    1.8095   48.8671 O.2     1  ZINC001082278299   -0.5100
     17 C17        -3.0621    2.4566   51.1273 C.3     1  ZINC001082278299   -0.1100
     18 C18        -4.5125    2.1147   50.9029 C.2     1  ZINC001082278299   -0.0900
     19 C19        -5.3657    3.0827   50.7457 C.2     1  ZINC001082278299   -0.1800
     20 C20        -6.8332    2.8482   50.5254 C.3     1  ZINC001082278299    0.0900
     21 O21        -7.0643    1.4861   50.1604 O.3     1  ZINC001082278299   -0.3800
     22 C22        -6.4342    0.5536   51.0475 C.3     1  ZINC001082278299    0.0600
     23 C23        -4.9166    0.6668   50.8632 C.3     1  ZINC001082278299   -0.1100
     24 C24         2.6446    1.5604   42.8634 C.3     1  ZINC001082278299   -0.1200
     25 C25         3.5900    0.3654   43.0019 C.3     1  ZINC001082278299   -0.1900
     26 C26         2.3156    0.2397   42.1646 C.3     1  ZINC001082278299   -0.1500
     27 H27         2.8403    1.9451   45.9387 H       1  ZINC001082278299    0.0800
     28 H28         3.2725    3.2859   44.8507 H       1  ZINC001082278299    0.0800
     29 H29         1.7103    3.3002   45.7037 H       1  ZINC001082278299    0.0700
     30 H30         0.0696    1.0992   43.2815 H       1  ZINC001082278299    0.1300
     31 H31         0.2540    0.3913   46.3873 H       1  ZINC001082278299    0.3900
     32 H32        -1.8734    2.2556   47.2397 H       1  ZINC001082278299    0.0900
     33 H33        -1.5339    0.6680   47.9695 H       1  ZINC001082278299    0.0800
     34 H34         0.6300    0.3430   49.2082 H       1  ZINC001082278299    0.0700
     35 H35         1.6274    1.2270   48.0276 H       1  ZINC001082278299    0.0800
     36 H36         2.6672    1.3039   50.2686 H       1  ZINC001082278299    0.0700
     37 H37         2.1509    2.9308   49.7645 H       1  ZINC001082278299    0.0700
     38 H38         0.5648    1.0570   51.5788 H       1  ZINC001082278299    0.0700
     39 H39         1.5147    2.4608   52.1240 H       1  ZINC001082278299    0.0800
     40 H40        -0.9400    2.9684   51.8602 H       1  ZINC001082278299    0.0900
     41 H41         0.0981    3.9781   50.8210 H       1  ZINC001082278299    0.0700
     42 H42        -2.6587    1.8269   51.9203 H       1  ZINC001082278299    0.1000
     43 H43        -2.9761    3.5041   51.4160 H       1  ZINC001082278299    0.1000
     44 H44        -5.0039    4.0999   50.7752 H       1  ZINC001082278299    0.1100
     45 H45        -7.3768    3.0737   51.4430 H       1  ZINC001082278299    0.0600
     46 H46        -7.1877    3.5012   49.7280 H       1  ZINC001082278299    0.1000
     47 H47        -6.7014    0.7888   52.0777 H       1  ZINC001082278299    0.0600
     48 H48        -6.7576   -0.4589   50.8059 H       1  ZINC001082278299    0.1000
     49 H49        -4.6337    0.2307   49.9051 H       1  ZINC001082278299    0.0800
     50 H50        -4.4123    0.1319   51.6681 H       1  ZINC001082278299    0.0800
     51 H51         2.9722    2.3920   42.2395 H       1  ZINC001082278299    0.1300
     52 H52         4.5397    0.4106   42.4692 H       1  ZINC001082278299    0.1000
     53 H53         3.6136   -0.1489   43.9627 H       1  ZINC001082278299    0.1000
     54 H54         1.5008   -0.3572   42.5746 H       1  ZINC001082278299    0.0900
     55 H55         2.4270    0.2023   41.0810 H       1  ZINC001082278299    0.1000
@<TRIPOS>BOND
     1     1     2    1
     2     1    27    1
     3     1    28    1
     4     1    29    1
     5     2     3    2
     6     2    24    1
     7     3     4    1
     8     3    30    1
     9     4     5    2
    10     4     6   am
    11     6     7    1
    12     6    31    1
    13     7     8    1
    14     7    32    1
    15     7    33    1
    16     8     9    1
    17     8    14    1
    18     8    10    1
    19    10    11    1
    20    10    34    1
    21    10    35    1
    22    11    12    1
    23    11    36    1
    24    11    37    1
    25    12    13    1
    26    12    38    1
    27    12    39    1
    28    13    14    1
    29    13    40    1
    30    13    41    1
    31    14    15   am
    32    15    16    2
    33    15    17    1
    34    17    18    1
    35    17    42    1
    36    17    43    1
    37    18    23    1
    38    18    19    2
    39    19    20    1
    40    19    44    1
    41    20    21    1
    42    20    45    1
    43    20    46    1
    44    21    22    1
    45    22    23    1
    46    22    47    1
    47    22    48    1
    48    23    49    1
    49    23    50    1
    50    24    26    1
    51    24    25    1
    52    24    51    1
    53    25    26    1
    54    25    52    1
    55    25    53    1
    56    26    54    1
    57    26    55    1
@<TRIPOS>SUBSTRUCTURE
     1 ZINC001082278299        1 TEMP              0 ****  ****    0 ROOT


##########                                Name:    ZINC000151303733
##########                DOCK_Rotatable_Bonds:                   7
##########                         Heavy_Atoms:                  26
##########                    Molecular_Weight:             369.444
##########                DOCK_Rotatable_Bonds:                   7
##########                       Formal_Charge:        -1.93715e-07
##########                     HBond_Acceptors:                   7
##########                        HBond_Donors:                   2
##########                         Heavy_Atoms:                  26
##########                          Grid_Score:          -30.965899
##########                     Grid_vdw_energy:          -29.915794
##########                      Grid_es_energy:           -1.050104
##########           Internal_energy_repulsive:            9.715858

@<TRIPOS>MOLECULE
ZINC000151303733
 45 48 1 0 0
SMALL
USER_CHARGES


@<TRIPOS>ATOM
      1 C1          3.1628   -0.1728   51.7179 C.3     1  ZINC000151303733   -0.1000
      2 C2          3.9785    0.4203   50.5981 C.2     1  ZINC000151303733   -0.1200
      3 C3          5.3094    0.3433   50.5610 C.2     1  ZINC000151303733   -0.2000
      4 S4          5.9097    1.1431   49.1144 S.3     1  ZINC000151303733    0.1200
      5 C5          4.2717    1.5521   48.6218 C.2     1  ZINC000151303733   -0.2400
      6 C6          3.4016    1.0833   49.5238 C.2     1  ZINC000151303733    0.1200
      7 N7          2.0108    1.2576   49.3980 N.am    1  ZINC000151303733   -0.6400
      8 C8          1.3787    0.8482   48.2804 C.2     1  ZINC000151303733    0.5100
      9 O9          2.0086    0.3296   47.3826 O.2     1  ZINC000151303733   -0.5100
     10 C10        -0.1107    1.0348   48.1457 C.3     1  ZINC000151303733    0.1000
     11 N11        -0.6869    1.3279   49.4604 N.am    1  ZINC000151303733   -0.7100
     12 C12        -1.9965    1.6268   49.5707 C.2     1  ZINC000151303733    0.5200
     13 O13        -2.6975    1.6546   48.5815 O.2     1  ZINC000151303733   -0.5100
     14 C14        -2.5895    1.9265   50.9232 C.3     1  ZINC000151303733    0.1600
     15 H15        -2.1064    1.3171   51.6871 H       1  ZINC000151303733    0.1300
     16 C16        -4.0738    1.6592   50.9091 C.ar    1  ZINC000151303733   -0.0900
     17 C17        -4.8259    0.5310   50.6784 C.ar    1  ZINC000151303733   -0.0900
     18 C18        -6.2083    0.5975   50.7357 C.ar    1  ZINC000151303733   -0.0800
     19 C19        -6.8356    1.7962   51.0246 C.ar    1  ZINC000151303733   -0.1200
     20 C20        -6.0905    2.9339   51.2577 C.ar    1  ZINC000151303733   -0.0400
     21 C21        -4.6971    2.8748   51.2017 C.ar    1  ZINC000151303733   -0.1500
     22 C22        -3.6502    3.8956   51.3992 C.2     1  ZINC000151303733    0.5600
     23 O23        -3.8595    5.0623   51.6683 O.2     1  ZINC000151303733   -0.5100
     24 N24        -2.4305    3.3506   51.2392 N.am    1  ZINC000151303733   -0.5700
     25 C25        -1.1555    4.0620   51.3602 C.3     1  ZINC000151303733    0.0900
     26 C26        -1.0437    5.1312   52.4489 C.3     1  ZINC000151303733   -0.1800
     27 C27        -0.3140    3.7961   52.6100 C.3     1  ZINC000151303733   -0.1900
     28 H28         2.9048   -1.2031   51.4732 H       1  ZINC000151303733    0.0700
     29 H29         3.7432   -0.1528   52.6402 H       1  ZINC000151303733    0.0700
     30 H30         2.2504    0.4087   51.8501 H       1  ZINC000151303733    0.0600
     31 H31         5.9254   -0.1371   51.3068 H       1  ZINC000151303733    0.1700
     32 H32         4.0082    2.0949   47.7260 H       1  ZINC000151303733    0.2000
     33 H33         1.5072    1.6724   50.1158 H       1  ZINC000151303733    0.4200
     34 H34        -0.3131    1.8637   47.4674 H       1  ZINC000151303733    0.1100
     35 H35        -0.5567    0.1230   47.7486 H       1  ZINC000151303733    0.1100
     36 H36        -0.1259    1.3069   50.2514 H       1  ZINC000151303733    0.4100
     37 H37        -4.3390   -0.4061   50.4523 H       1  ZINC000151303733    0.1300
     38 H38        -6.7980   -0.2888   50.5540 H       1  ZINC000151303733    0.1400
     39 H39        -7.9138    1.8417   51.0675 H       1  ZINC000151303733    0.1400
     40 H40        -6.5842    3.8677   51.4832 H       1  ZINC000151303733    0.1400
     41 H41        -0.6251    4.2387   50.4245 H       1  ZINC000151303733    0.1400
     42 H42        -0.4397    6.0116   52.2295 H       1  ZINC000151303733    0.1000
     43 H43        -1.9187    5.3053   53.0751 H       1  ZINC000151303733    0.1300
     44 H44        -0.7089    3.0918   53.3422 H       1  ZINC000151303733    0.1000
     45 H45         0.7701    3.7981   52.4966 H       1  ZINC000151303733    0.1000
@<TRIPOS>BOND
     1     1     2    1
     2     1    28    1
     3     1    29    1
     4     1    30    1
     5     2     6    1
     6     2     3    2
     7     3     4    1
     8     3    31    1
     9     4     5    1
    10     5     6    2
    11     5    32    1
    12     6     7    1
    13     7     8   am
    14     7    33    1
    15     8     9    2
    16     8    10    1
    17    10    11    1
    18    10    34    1
    19    10    35    1
    20    11    12   am
    21    11    36    1
    22    12    13    2
    23    12    14    1
    24    14    15    1
    25    14    24    1
    26    14    16    1
    27    16    21   ar
    28    16    17   ar
    29    17    18   ar
    30    17    37    1
    31    18    19   ar
    32    18    38    1
    33    19    20   ar
    34    19    39    1
    35    20    21   ar
    36    20    40    1
    37    21    22    1
    38    22    23    2
    39    22    24   am
    40    24    25    1
    41    25    27    1
    42    25    26    1
    43    25    41    1
    44    26    27    1
    45    26    42    1
    46    26    43    1
    47    27    44    1
    48    27    45    1
@<TRIPOS>SUBSTRUCTURE
     1 ZINC000151303733        1 TEMP              0 ****  ****    0 ROOT


##########                                Name:    ZINC000460163972
##########                DOCK_Rotatable_Bonds:                   7
##########                         Heavy_Atoms:                  28
##########                    Molecular_Weight:             408.469
##########                DOCK_Rotatable_Bonds:                   7
##########                       Formal_Charge:          -0.0100001
##########                     HBond_Acceptors:                   8
##########                        HBond_Donors:                   2
##########                         Heavy_Atoms:                  28
##########                          Grid_Score:          -30.964975
##########                     Grid_vdw_energy:          -30.590071
##########                      Grid_es_energy:           -0.374905
##########           Internal_energy_repulsive:           45.444050

@<TRIPOS>MOLECULE
ZINC000460163972
 50 52 1 0 0
SMALL
USER_CHARGES


@<TRIPOS>ATOM
      1 C1         -7.0324    1.0974   50.8113 C.3     1  ZINC000460163972   -0.1400
      2 C2         -5.5541    1.3805   50.8857 C.ar    1  ZINC000460163972    0.0100
      3 C3         -4.6513    0.4779   50.3548 C.ar    1  ZINC000460163972   -0.1300
      4 C4         -3.2956    0.7344   50.4213 C.ar    1  ZINC000460163972   -0.0600
      5 C5         -2.8400    1.9004   51.0218 C.ar    1  ZINC000460163972    0.1100
      6 N6         -1.4674    2.1635   51.0904 N.am    1  ZINC000460163972   -0.6700
      7 C7         -0.7794    2.4516   49.9678 C.2     1  ZINC000460163972    0.5200
      8 O8         -1.3502    2.4829   48.8980 O.2     1  ZINC000460163972   -0.5100
      9 C9          0.6988    2.7350   50.0417 C.3     1  ZINC000460163972   -0.0700
     10 H10         0.8623    3.8126   50.0488 H       1  ZINC000460163972    0.1200
     11 C11         1.2719    2.1237   51.3219 C.3     1  ZINC000460163972   -0.1500
     12 C12         1.3866    2.1305   48.8448 C.ar    1  ZINC000460163972   -0.0600
     13 C13         1.0493    0.8577   48.4247 C.ar    1  ZINC000460163972   -0.0700
     14 C14         1.6789    0.3008   47.3269 C.ar    1  ZINC000460163972   -0.1200
     15 C15         2.6475    1.0181   46.6473 C.ar    1  ZINC000460163972    0.0700
     16 F16         3.2629    0.4750   45.5742 F       1  ZINC000460163972   -0.1300
     17 C17         2.9856    2.2955   47.0686 C.ar    1  ZINC000460163972    0.0700
     18 F18         3.9311    2.9978   46.4066 F       1  ZINC000460163972   -0.1300
     19 C19         2.3502    2.8518   48.1647 C.ar    1  ZINC000460163972   -0.1200
     20 C20        -3.7494    2.8054   51.5538 C.ar    1  ZINC000460163972    0.0000
     21 C21        -3.2592    4.0724   52.2059 C.3     1  ZINC000460163972   -0.1500
     22 C22        -5.1036    2.5453   51.4798 C.ar    1  ZINC000460163972   -0.6700
     23 S23        -6.2582    3.6930   52.1538 S.o2    1  ZINC000460163972    2.7000
     24 O24        -6.7216    3.1275   53.3722 O.2     1  ZINC000460163972   -0.9500
     25 O25        -5.6452    4.9725   52.0744 O.2     1  ZINC000460163972   -0.9500
     26 N26        -7.5611    3.7345   51.1323 N.am    1  ZINC000460163972   -1.0900
     27 C27        -7.3836    4.1363   49.7348 C.3     1  ZINC000460163972    0.0800
     28 C28        -8.6231    4.6105   48.9733 C.3     1  ZINC000460163972   -0.1800
     29 C29        -7.5543    5.6192   49.3990 C.3     1  ZINC000460163972   -0.1900
     30 H30        -7.4544    1.5962   49.9388 H       1  ZINC000460163972    0.1000
     31 H31        -7.1928    0.0224   50.7283 H       1  ZINC000460163972    0.0800
     32 H32        -7.5192    1.4689   51.7130 H       1  ZINC000460163972    0.0700
     33 H33        -5.0064   -0.4289   49.8878 H       1  ZINC000460163972    0.1400
     34 H34        -2.5909    0.0285   50.0070 H       1  ZINC000460163972    0.1600
     35 H35        -1.0109    2.1385   51.9459 H       1  ZINC000460163972    0.4100
     36 H36         2.3411    2.3287   51.3753 H       1  ZINC000460163972    0.0800
     37 H37         0.7744    2.5610   52.1876 H       1  ZINC000460163972    0.0700
     38 H38         1.1084    1.0461   51.3148 H       1  ZINC000460163972    0.0700
     39 H39         0.2934    0.2973   48.9547 H       1  ZINC000460163972    0.1400
     40 H40         1.4149   -0.6940   47.0000 H       1  ZINC000460163972    0.1500
     41 H41         2.6124    3.8466   48.4936 H       1  ZINC000460163972    0.1500
     42 H42        -3.3025    4.8911   51.4876 H       1  ZINC000460163972    0.1000
     43 H43        -3.8900    4.3074   53.0632 H       1  ZINC000460163972    0.1000
     44 H44        -2.2303    3.9352   52.5388 H       1  ZINC000460163972    0.0700
     45 H45        -8.4417    3.4928   51.4595 H       1  ZINC000460163972    0.4200
     46 H46        -6.6330    3.5770   49.1764 H       1  ZINC000460163972    0.1300
     47 H47        -8.6881    4.3632   47.9138 H       1  ZINC000460163972    0.1100
     48 H48        -9.5705    4.6236   49.5122 H       1  ZINC000460163972    0.1000
     49 H49        -7.7986    6.2958   50.2179 H       1  ZINC000460163972    0.1000
     50 H50        -6.9161    6.0354   48.6194 H       1  ZINC000460163972    0.1000
@<TRIPOS>BOND
     1     1     2    1
     2     1    30    1
     3     1    31    1
     4     1    32    1
     5     2    22   ar
     6     2     3   ar
     7     3     4   ar
     8     3    33    1
     9     4     5   ar
    10     4    34    1
    11     5     6    1
    12     5    20   ar
    13     6     7   am
    14     6    35    1
    15     7     8    2
    16     7     9    1
    17     9    10    1
    18     9    11    1
    19     9    12    1
    20    11    36    1
    21    11    37    1
    22    11    38    1
    23    12    19   ar
    24    12    13   ar
    25    13    14   ar
    26    13    39    1
    27    14    15   ar
    28    14    40    1
    29    15    16    1
    30    15    17   ar
    31    17    18    1
    32    17    19   ar
    33    19    41    1
    34    20    21    1
    35    20    22   ar
    36    21    42    1
    37    21    43    1
    38    21    44    1
    39    22    23    1
    40    23    24    2
    41    23    25    2
    42    23    26   am
    43    26    27    1
    44    26    45    1
    45    27    29    1
    46    27    28    1
    47    27    46    1
    48    28    29    1
    49    28    47    1
    50    28    48    1
    51    29    49    1
    52    29    50    1
@<TRIPOS>SUBSTRUCTURE
     1 ZINC000460163972        1 TEMP              0 ****  ****    0 ROOT


##########                                Name:    ZINC000279452407
##########                DOCK_Rotatable_Bonds:                   6
##########                         Heavy_Atoms:                  24
##########                    Molecular_Weight:              375.47
##########                DOCK_Rotatable_Bonds:                   6
##########                       Formal_Charge:          0.00999929
##########                     HBond_Acceptors:                  10
##########                        HBond_Donors:                   3
##########                         Heavy_Atoms:                  24
##########                          Grid_Score:          -30.962803
##########                     Grid_vdw_energy:          -31.161184
##########                      Grid_es_energy:            0.198382
##########           Internal_energy_repulsive:           26.279173

@<TRIPOS>MOLECULE
ZINC000279452407
 45 47 1 0 0
SMALL
USER_CHARGES


@<TRIPOS>ATOM
      1 C1         -0.1104    0.7843   45.6868 C.3     1  ZINC000279452407   -0.1600
      2 C2          0.2365    1.8110   44.6068 C.3     1  ZINC000279452407    0.0600
      3 H3         -0.6632    2.3439   44.2989 H       1  ZINC000279452407    0.0700
      4 O4          0.8262    1.1494   43.4732 O.3     1  ZINC000279452407   -0.3700
      5 C5          1.8107    2.0517   42.9229 C.3     1  ZINC000279452407    0.0500
      6 C6          2.4755    2.6739   44.1786 C.3     1  ZINC000279452407   -0.1400
      7 C7          1.2750    2.8060   45.1452 C.3     1  ZINC000279452407    0.0700
      8 C8          1.6996    2.4170   46.5590 C.3     1  ZINC000279452407    0.1100
      9 N9          0.5914    2.7231   47.4793 N.am    1  ZINC000279452407   -0.6300
     10 C10         0.1509    1.8081   48.3654 C.2     1  ZINC000279452407    0.7200
     11 O11         0.6697    0.7096   48.4136 O.2     1  ZINC000279452407   -0.5800
     12 N12        -0.8646    2.1108   49.1982 N.am    1  ZINC000279452407   -0.7500
     13 C13        -1.3433    1.1163   50.1613 C.3     1  ZINC000279452407    0.2000
     14 C14        -2.7453    1.4660   50.5897 C.2     1  ZINC000279452407   -0.1700
     15 C15        -3.0699    2.4516   51.4279 C.2     1  ZINC000279452407   -0.1400
     16 C16        -4.4255    2.5850   51.6742 C.2     1  ZINC000279452407    0.0100
     17 C17        -5.2017    1.7078   51.0360 C.2     1  ZINC000279452407   -0.7900
     18 S18        -6.9584    1.6335   51.1519 S.o2    1  ZINC000279452407    2.7300
     19 N19        -7.3543    1.8538   52.7446 N.am    1  ZINC000279452407   -1.2500
     20 O20        -7.4548    2.7676   50.4544 O.2     1  ZINC000279452407   -0.9600
     21 O21        -7.3257    0.2996   50.8279 O.2     1  ZINC000279452407   -0.9500
     22 S22        -4.2042    0.6420   50.0549 S.3     1  ZINC000279452407    0.2500
     23 C23        -0.0197    4.0596   47.4014 C.3     1  ZINC000279452407    0.0700
     24 C24        -0.3856    4.3421   45.9398 C.3     1  ZINC000279452407    0.0400
     25 O25         0.7663    4.1339   45.1173 O.3     1  ZINC000279452407   -0.3600
     26 H26        -0.6377    1.2791   46.5025 H       1  ZINC000279452407    0.0700
     27 H27        -0.7466    0.0089   45.2602 H       1  ZINC000279452407    0.0600
     28 H28         0.8063    0.3336   46.0674 H       1  ZINC000279452407    0.0800
     29 H29         2.5448    1.5042   42.3317 H       1  ZINC000279452407    0.1000
     30 H30         1.3303    2.8231   42.3212 H       1  ZINC000279452407    0.0700
     31 H31         3.2353    2.0077   44.5875 H       1  ZINC000279452407    0.1000
     32 H32         2.8993    3.6519   43.9505 H       1  ZINC000279452407    0.1000
     33 H33         1.9213    1.3504   46.5946 H       1  ZINC000279452407    0.1200
     34 H34         2.5827    2.9877   46.8463 H       1  ZINC000279452407    0.0800
     35 H35        -1.2786    2.9873   49.1597 H       1  ZINC000279452407    0.4000
     36 H36        -1.3407    0.1301   49.6971 H       1  ZINC000279452407    0.1000
     37 H37        -0.6883    1.1094   51.0325 H       1  ZINC000279452407    0.0900
     38 H38        -2.3310    3.0963   51.8804 H       1  ZINC000279452407    0.1600
     39 H39        -4.8244    3.3418   52.3335 H       1  ZINC000279452407    0.1600
     40 H40        -8.2847    1.8455   53.0188 H       1  ZINC000279452407    0.4200
     41 H41        -6.6557    1.9913   53.4035 H       1  ZINC000279452407    0.4200
     42 H42        -0.9193    4.0874   48.0162 H       1  ZINC000279452407    0.0900
     43 H43         0.6906    4.8082   47.7524 H       1  ZINC000279452407    0.0900
     44 H44        -1.1828    3.6676   45.6273 H       1  ZINC000279452407    0.0600
     45 H45        -0.7214    5.3743   45.8415 H       1  ZINC000279452407    0.1100
@<TRIPOS>BOND
     1     1     2    1
     2     1    26    1
     3     1    27    1
     4     1    28    1
     5     2     3    1
     6     2     7    1
     7     2     4    1
     8     4     5    1
     9     5     6    1
    10     5    29    1
    11     5    30    1
    12     6     7    1
    13     6    31    1
    14     6    32    1
    15     7    25    1
    16     7     8    1
    17     8     9    1
    18     8    33    1
    19     8    34    1
    20     9    10   am
    21     9    23    1
    22    10    11    2
    23    10    12   am
    24    12    13    1
    25    12    35    1
    26    13    14    1
    27    13    36    1
    28    13    37    1
    29    14    22    1
    30    14    15    2
    31    15    16    1
    32    15    38    1
    33    16    17    2
    34    16    39    1
    35    17    18    1
    36    17    22    1
    37    18    19   am
    38    18    20    2
    39    18    21    2
    40    19    40    1
    41    19    41    1
    42    23    24    1
    43    23    42    1
    44    23    43    1
    45    24    25    1
    46    24    44    1
    47    24    45    1
@<TRIPOS>SUBSTRUCTURE
     1 ZINC000279452407        1 TEMP              0 ****  ****    0 ROOT


##########                                Name:    ZINC000753658424
##########                DOCK_Rotatable_Bonds:                   8
##########                         Heavy_Atoms:                  24
##########                    Molecular_Weight:             332.399
##########                DOCK_Rotatable_Bonds:                   8
##########                       Formal_Charge:        -9.16421e-07
##########                     HBond_Acceptors:                   6
##########                        HBond_Donors:                   3
##########                         Heavy_Atoms:                  24
##########                          Grid_Score:          -30.960070
##########                     Grid_vdw_energy:          -29.602037
##########                      Grid_es_energy:           -1.358032
##########           Internal_energy_repulsive:           20.427643

@<TRIPOS>MOLECULE
ZINC000753658424
 48 49 1 0 0
SMALL
USER_CHARGES


@<TRIPOS>ATOM
      1 C1          3.5781    2.4375   48.3641 C.3     1  ZINC000753658424   -0.2000
      2 C2          2.7894    1.3821   49.0956 C.2     1  ZINC000753658424    0.4400
      3 O3          3.3669    0.5207   49.7252 O.2     1  ZINC000753658424   -0.4500
      4 C4          1.3241    1.3961   49.0464 C.2     1  ZINC000753658424   -0.2500
      5 C5          0.5251    0.7909   48.0888 C.2     1  ZINC000753658424    0.1000
      6 C6          1.0147   -0.0036   46.9055 C.3     1  ZINC000753658424   -0.1000
      7 N7         -0.7578    1.0327   48.3954 N.pl3   1  ZINC000753658424   -0.5300
      8 C8         -0.8166    1.7910   49.5449 C.2     1  ZINC000753658424   -0.0600
      9 C9         -2.0427    2.2615   50.2019 C.2     1  ZINC000753658424    0.5900
     10 O10        -2.1730    3.4401   50.4744 O.2     1  ZINC000753658424   -0.5200
     11 N11        -3.0236    1.3877   50.5032 N.am    1  ZINC000753658424   -0.7300
     12 C12        -4.2462    1.8569   51.1601 C.3     1  ZINC000753658424    0.0900
     13 C13        -5.2655    0.7172   51.2144 C.3     1  ZINC000753658424    0.1900
     14 H14        -4.8628   -0.1025   51.8093 H       1  ZINC000753658424    0.1300
     15 O15        -5.5353    0.2561   49.8890 O.3     1  ZINC000753658424   -0.5500
     16 C16        -6.5418    1.2142   51.8429 C.2     1  ZINC000753658424   -0.0600
     17 C17        -6.6362    2.1834   52.7708 C.2     1  ZINC000753658424   -0.1800
     18 C18        -8.0094    2.3259   53.0761 C.2     1  ZINC000753658424   -0.2100
     19 C19        -8.6719    1.4352   52.3164 C.2     1  ZINC000753658424    0.0000
     20 C20       -10.1642    1.2259   52.3028 C.3     1  ZINC000753658424   -0.0800
     21 O21        -7.7785    0.7687   51.5672 O.3     1  ZINC000753658424   -0.1700
     22 C22         0.4561    2.0249   49.9713 C.2     1  ZINC000753658424   -0.0100
     23 C23         0.8630    2.8115   51.1905 C.3     1  ZINC000753658424   -0.0500
     24 C24         2.0802    2.1509   51.8410 C.3     1  ZINC000753658424   -0.1500
     25 C25         1.2177    4.2420   50.7797 C.3     1  ZINC000753658424   -0.1500
     26 H26         4.6393    2.3128   48.5798 H       1  ZINC000753658424    0.0800
     27 H27         3.4112    2.3376   47.2916 H       1  ZINC000753658424    0.1000
     28 H28         3.2543    3.4253   48.6918 H       1  ZINC000753658424    0.0900
     29 H29         1.0230   -1.0638   47.1580 H       1  ZINC000753658424    0.0900
     30 H30         0.3512    0.1626   46.0567 H       1  ZINC000753658424    0.0800
     31 H31         2.0239    0.3160   46.6457 H       1  ZINC000753658424    0.0900
     32 H32        -1.5242    0.7226   47.8878 H       1  ZINC000753658424    0.4200
     33 H33        -2.9202    0.4482   50.2849 H       1  ZINC000753658424    0.4000
     34 H34        -4.0118    2.1832   52.1734 H       1  ZINC000753658424    0.0900
     35 H35        -4.6639    2.6914   50.5972 H       1  ZINC000753658424    0.0800
     36 H36        -6.1739   -0.4689   49.8471 H       1  ZINC000753658424    0.3900
     37 H37        -5.8197    2.7447   53.2007 H       1  ZINC000753658424    0.1500
     38 H38        -8.4430    3.0170   53.7836 H       1  ZINC000753658424    0.1500
     39 H39       -10.6158    1.8783   51.5554 H       1  ZINC000753658424    0.0800
     40 H40       -10.3832    0.1867   52.0577 H       1  ZINC000753658424    0.0800
     41 H41       -10.5731    1.4614   53.2854 H       1  ZINC000753658424    0.0900
     42 H42         0.0373    2.8319   51.9019 H       1  ZINC000753658424    0.1100
     43 H43         2.9392    2.2375   51.1756 H       1  ZINC000753658424    0.0500
     44 H44         2.3011    2.6469   52.7860 H       1  ZINC000753658424    0.0600
     45 H45         1.8673    1.0977   52.0244 H       1  ZINC000753658424    0.0600
     46 H46         0.3295    4.7387   50.3893 H       1  ZINC000753658424    0.0500
     47 H47         1.5875    4.7881   51.6475 H       1  ZINC000753658424    0.0600
     48 H48         1.9887    4.2182   50.0096 H       1  ZINC000753658424    0.0600
@<TRIPOS>BOND
     1     1     2    1
     2     1    26    1
     3     1    27    1
     4     1    28    1
     5     2     3    2
     6     2     4    1
     7     4    22    1
     8     4     5    2
     9     5     6    1
    10     5     7    1
    11     6    29    1
    12     6    30    1
    13     6    31    1
    14     7     8    1
    15     7    32    1
    16     8     9    1
    17     8    22    2
    18     9    10    2
    19     9    11   am
    20    11    12    1
    21    11    33    1
    22    12    13    1
    23    12    34    1
    24    12    35    1
    25    13    14    1
    26    13    15    1
    27    13    16    1
    28    15    36    1
    29    16    21    1
    30    16    17    2
    31    17    18    1
    32    17    37    1
    33    18    19    2
    34    18    38    1
    35    19    20    1
    36    19    21    1
    37    20    39    1
    38    20    40    1
    39    20    41    1
    40    22    23    1
    41    23    24    1
    42    23    25    1
    43    23    42    1
    44    24    43    1
    45    24    44    1
    46    24    45    1
    47    25    46    1
    48    25    47    1
    49    25    48    1
@<TRIPOS>SUBSTRUCTURE
     1 ZINC000753658424        1 TEMP              0 ****  ****    0 ROOT


##########                                Name:    ZINC000342525234
##########                DOCK_Rotatable_Bonds:                   6
##########                         Heavy_Atoms:                  25
##########                    Molecular_Weight:             333.349
##########                DOCK_Rotatable_Bonds:                   6
##########                       Formal_Charge:           0.0500003
##########                     HBond_Acceptors:                   7
##########                        HBond_Donors:                   2
##########                         Heavy_Atoms:                  25
##########                          Grid_Score:          -30.952751
##########                     Grid_vdw_energy:          -29.308128
##########                      Grid_es_energy:           -1.644623
##########           Internal_energy_repulsive:            4.773752

@<TRIPOS>MOLECULE
ZINC000342525234
 40 43 1 0 0
SMALL
USER_CHARGES


@<TRIPOS>ATOM
      1 O1          1.2137    3.0014   49.2787 O.2     1  <0>        -0.5100
      2 C2          0.2376    2.8190   48.5787 C.2     1  <0>         0.6000
      3 N3         -0.9699    3.2667   48.9763 N.am    1  <0>        -0.7100
      4 C4         -1.1064    3.9680   50.2552 C.3     1  <0>         0.1200
      5 C5         -1.4794    2.9656   51.3493 C.3     1  <0>        -0.0900
      6 C6         -2.9084    2.5255   51.1612 C.ar    1  <0>        -0.0400
      7 C7         -3.1618    1.2397   50.8114 C.ar    1  <0>        -0.1000
      8 C8         -4.4964    0.8161   50.6324 C.ar    1  <0>         0.1100
      9 N9         -5.0718   -0.3260   50.3033 N.2     1  <0>        -0.3100
     10 N10        -6.4595   -0.1458   50.2795 N.pl3   1  <0>        -0.4200
     11 C11        -6.7617    1.1205   50.5963 C.2     1  <0>         0.0900
     12 C12        -5.5776    1.7935   50.8334 C.ar    1  <0>        -0.2100
     13 C13        -5.2399    3.1147   51.1968 C.ar    1  <0>        -0.0400
     14 C14        -3.9356    3.4514   51.3575 C.ar    1  <0>        -0.1500
     15 C15         0.3757    2.1089   47.2836 C.2     1  <0>        -0.0200
     16 N16        -0.5882    1.5788   46.5712 N.2     1  <0>        -0.3200
     17 O17        -0.1685    1.0663   45.5602 O.3     1  <0>         0.1400
     18 C18         1.1668    1.1876   45.4573 C.2     1  <0>         0.0100
     19 C19         2.0204    0.6844   44.3594 C.ar    1  <0>         0.0200
     20 C20         1.4876    0.4393   43.0886 C.ar    1  <0>        -0.1400
     21 C21         2.3203   -0.0294   42.0934 C.ar    1  <0>         0.1100
     22 N22         3.6003   -0.2465   42.3274 N.ar    1  <0>        -0.4800
     23 C23         4.1427   -0.0287   43.5102 C.ar    1  <0>         0.1100
     24 C24         3.3846    0.4455   44.5608 C.ar    1  <0>        -0.1500
     25 C25         1.5777    1.8735   46.5657 C.2     1  <0>        -0.1500
     26 H26        -1.7485    3.1245   48.4156 H       1  <0>         0.4100
     27 H27        -0.1612    4.4480   50.5091 H       1  <0>         0.0800
     28 H28        -1.8873    4.7240   50.1735 H       1  <0>         0.0800
     29 H29        -0.8212    2.0990   51.2877 H       1  <0>         0.0900
     30 H30        -1.3698    3.4366   52.3262 H       1  <0>         0.0800
     31 H31        -2.3476    0.5445   50.6703 H       1  <0>         0.1300
     32 H32        -7.1069   -0.8356   50.0652 H       1  <0>         0.4500
     33 H33        -7.7546    1.5412   50.6555 H       1  <0>         0.1900
     34 H34        -6.0145    3.8514   51.3505 H       1  <0>         0.1300
     35 H35        -3.6844    4.4642   51.6360 H       1  <0>         0.1200
     36 H36         0.4405    0.6142   42.8902 H       1  <0>         0.1400
     37 H37         1.9186   -0.2216   41.1095 H       1  <0>         0.1700
     38 H38         5.1953   -0.2204   43.6568 H       1  <0>         0.1700
     39 H39         3.8353    0.6216   45.5263 H       1  <0>         0.1500
     40 H40         2.5826    2.1630   46.8356 H       1  <0>         0.1900
@<TRIPOS>BOND
     1     1     2    2
     2     2     3   am
     3     2    15    1
     4     3     4    1
     5     3    26    1
     6     4     5    1
     7     4    27    1
     8     4    28    1
     9     5     6    1
    10     5    29    1
    11     5    30    1
    12     6    14   ar
    13     6     7   ar
    14     7     8   ar
    15     7    31    1
    16     8    12   ar
    17     8     9    2
    18     9    10    1
    19    10    11    1
    20    10    32    1
    21    11    12    2
    22    11    33    1
    23    12    13   ar
    24    13    14   ar
    25    13    34    1
    26    14    35    1
    27    15    25    1
    28    15    16    2
    29    16    17    1
    30    17    18    1
    31    18    19    1
    32    18    25    2
    33    19    24   ar
    34    19    20   ar
    35    20    21   ar
    36    20    36    1
    37    21    22   ar
    38    21    37    1
    39    22    23   ar
    40    23    24   ar
    41    23    38    1
    42    24    39    1
    43    25    40    1
@<TRIPOS>SUBSTRUCTURE
     1 <0>         1 TEMP              0 ****  ****    0 ROOT


##########                                Name:    ZINC000817655807
##########                DOCK_Rotatable_Bonds:                   3
##########                         Heavy_Atoms:                  24
##########                    Molecular_Weight:             352.774
##########                DOCK_Rotatable_Bonds:                   3
##########                       Formal_Charge:         3.35276e-07
##########                     HBond_Acceptors:                   8
##########                        HBond_Donors:                   0
##########                         Heavy_Atoms:                  24
##########                          Grid_Score:          -30.944788
##########                     Grid_vdw_energy:          -29.550600
##########                      Grid_es_energy:           -1.394188
##########           Internal_energy_repulsive:            3.980121

@<TRIPOS>MOLECULE
ZINC000817655807
 41 44 1 0 0
SMALL
USER_CHARGES


@<TRIPOS>ATOM
      1 C1         -9.3121    4.6809   48.9895 C.3     1  ZINC000817655807    0.1100
      2 N2         -8.6075    3.9048   50.0129 N.am    1  ZINC000817655807   -0.6400
      3 C3         -7.2524    3.3403   49.8796 C.3     1  ZINC000817655807    0.1000
      4 C4         -7.0274    2.6441   51.2248 C.3     1  ZINC000817655807    0.0500
      5 C5         -6.5346    1.1987   51.1512 C.3     1  ZINC000817655807    0.1200
      6 N6         -5.1778    1.7697   51.2823 N.am    1  ZINC000817655807   -0.6500
      7 C7         -3.9424    1.3528   50.9411 C.2     1  ZINC000817655807    0.5500
      8 O8         -3.7935    0.2799   50.3956 O.2     1  ZINC000817655807   -0.5100
      9 C9         -2.7460    2.2200   51.2374 C.3     1  ZINC000817655807   -0.0900
     10 C10        -1.6481    1.9153   50.2510 C.ar    1  ZINC000817655807   -0.0600
     11 C11        -0.3668    1.6604   50.7020 C.ar    1  ZINC000817655807   -0.0900
     12 C12         0.6439    1.3825   49.7993 C.ar    1  ZINC000817655807   -0.0300
     13 Cl13        2.2523    1.0634   50.3692 Cl      1  ZINC000817655807   -0.0500
     14 C14         0.3730    1.3583   48.4386 C.ar    1  ZINC000817655807    0.0600
     15 O15         1.3791    1.0912   47.5615 O.3     1  ZINC000817655807   -0.2900
     16 C16         0.9934    0.7096   46.2364 C.3     1  ZINC000817655807    0.0200
     17 C17        -0.0963    1.6775   45.7556 C.3     1  ZINC000817655807    0.0200
     18 O18        -1.2054    1.5873   46.6565 O.3     1  ZINC000817655807   -0.3000
     19 C19        -0.9166    1.6109   47.9864 C.ar    1  ZINC000817655807    0.0600
     20 C20        -1.9258    1.8855   48.8972 C.ar    1  ZINC000817655807   -0.0900
     21 C21        -5.7167    2.9804   51.9363 C.3     1  ZINC000817655807    0.1100
     22 O22        -8.2425    2.8714   51.9756 O.3     1  ZINC000817655807   -0.3000
     23 C23        -9.0876    3.5965   51.2273 C.2     1  ZINC000817655807    0.6400
     24 O24       -10.1893    3.9361   51.6111 O.2     1  ZINC000817655807   -0.5100
     25 H25       -10.2929    4.9722   49.3655 H       1  ZINC000817655807    0.0900
     26 H26        -8.7352    5.5740   48.7494 H       1  ZINC000817655807    0.0700
     27 H27        -9.4326    4.0740   48.0921 H       1  ZINC000817655807    0.0700
     28 H28        -7.2148    2.6197   49.0625 H       1  ZINC000817655807    0.1000
     29 H29        -6.5190    4.1324   49.7291 H       1  ZINC000817655807    0.1000
     30 H30        -6.8385    0.5863   52.0002 H       1  ZINC000817655807    0.1100
     31 H31        -6.7195    0.7189   50.1902 H       1  ZINC000817655807    0.1000
     32 H32        -3.0283    3.2694   51.1541 H       1  ZINC000817655807    0.1100
     33 H33        -2.3924    2.0179   52.2485 H       1  ZINC000817655807    0.1100
     34 H34        -0.1541    1.6785   51.7607 H       1  ZINC000817655807    0.1400
     35 H35         1.8553    0.7671   45.5718 H       1  ZINC000817655807    0.1300
     36 H36         0.6028   -0.3080   46.2459 H       1  ZINC000817655807    0.0800
     37 H37         0.2922    2.6959   45.7517 H       1  ZINC000817655807    0.0800
     38 H38        -0.4157    1.4015   44.7506 H       1  ZINC000817655807    0.1300
     39 H39        -2.9291    2.0802   48.5480 H       1  ZINC000817655807    0.1400
     40 H40        -5.2557    3.9073   51.5949 H       1  ZINC000817655807    0.1000
     41 H41        -5.7735    2.9060   53.0222 H       1  ZINC000817655807    0.1100
@<TRIPOS>BOND
     1     1     2    1
     2     1    25    1
     3     1    26    1
     4     1    27    1
     5     2    23   am
     6     2     3    1
     7     3     4    1
     8     3    28    1
     9     3    29    1
    10     4    21    1
    11     4     5    1
    12     4    22    1
    13     5     6    1
    14     5    30    1
    15     5    31    1
    16     6     7   am
    17     6    21    1
    18     7     8    2
    19     7     9    1
    20     9    10    1
    21     9    32    1
    22     9    33    1
    23    10    20   ar
    24    10    11   ar
    25    11    12   ar
    26    11    34    1
    27    12    13    1
    28    12    14   ar
    29    14    19   ar
    30    14    15    1
    31    15    16    1
    32    16    17    1
    33    16    35    1
    34    16    36    1
    35    17    18    1
    36    17    37    1
    37    17    38    1
    38    18    19    1
    39    19    20   ar
    40    20    39    1
    41    21    40    1
    42    21    41    1
    43    22    23    1
    44    23    24    2
@<TRIPOS>SUBSTRUCTURE
     1 ZINC000817655807        1 TEMP              0 ****  ****    0 ROOT


##########                                Name:    ZINC000558052810
##########                DOCK_Rotatable_Bonds:                   9
##########                         Heavy_Atoms:                  30
##########                    Molecular_Weight:             424.524
##########                DOCK_Rotatable_Bonds:                   9
##########                       Formal_Charge:          -0.0200002
##########                     HBond_Acceptors:                   8
##########                        HBond_Donors:                   1
##########                         Heavy_Atoms:                  30
##########                          Grid_Score:          -30.939732
##########                     Grid_vdw_energy:          -29.730730
##########                      Grid_es_energy:           -1.209002
##########           Internal_energy_repulsive:           10.441609

@<TRIPOS>MOLECULE
ZINC000558052810
 54 56 1 0 0
SMALL
USER_CHARGES


@<TRIPOS>ATOM
      1 C1         -0.0752    1.9042   44.8563 C.3     1  ZINC000558052810   -0.1700
      2 C2         -1.1569    1.9890   45.9350 C.3     1  ZINC000558052810    0.1100
      3 N3         -0.5375    2.3094   47.2234 N.am    1  ZINC000558052810   -0.6100
      4 C4         -0.3821    3.7070   47.6341 C.3     1  ZINC000558052810    0.0700
      5 C5         -0.1108    1.3183   48.0309 C.2     1  ZINC000558052810    0.5600
      6 O6         -0.2400    0.1586   47.6903 O.2     1  ZINC000558052810   -0.5300
      7 C7          0.5143    1.6416   49.3313 C.ar    1  ZINC000558052810   -0.1100
      8 C8          1.8953    1.5209   49.4937 C.ar    1  ZINC000558052810   -0.1100
      9 C9          2.4765    1.8232   50.7086 C.ar    1  ZINC000558052810   -0.1000
     10 C10         1.6952    2.2454   51.7676 C.ar    1  ZINC000558052810   -0.1300
     11 C11         0.3189    2.3684   51.6163 C.ar    1  ZINC000558052810    0.1400
     12 N12        -0.4675    2.7956   52.6915 N.am    1  ZINC000558052810   -0.6600
     13 C13        -0.7985    4.0968   52.8091 C.2     1  ZINC000558052810    0.5600
     14 O14        -0.4136    4.8995   51.9805 O.2     1  ZINC000558052810   -0.4800
     15 C15        -1.6269    4.5468   53.9416 C.ar    1  ZINC000558052810   -0.1900
     16 C16        -1.0633    4.7263   55.2100 C.ar    1  ZINC000558052810   -0.0200
     17 C17        -1.8839    5.1502   56.2402 C.ar    1  ZINC000558052810   -0.1900
     18 C18        -3.2251    5.3829   55.9920 C.ar    1  ZINC000558052810    0.1500
     19 N19        -3.7384    5.2078   54.7902 N.ar    1  ZINC000558052810   -0.4900
     20 C20        -2.9975    4.8094   53.7667 C.ar    1  ZINC000558052810    0.1600
     21 S21        -3.7365    4.5917   52.1820 S.3     1  ZINC000558052810    0.0600
     22 C22        -4.6184    3.0353   52.4576 C.3     1  ZINC000558052810   -0.0700
     23 C23        -5.6760    2.8627   51.3980 C.2     1  ZINC000558052810   -0.2000
     24 C24        -6.8116    3.5812   51.2283 C.2     1  ZINC000558052810   -0.0100
     25 C25        -7.2843    4.7351   52.0746 C.3     1  ZINC000558052810   -0.0800
     26 O26        -7.4322    3.0633   50.1590 O.3     1  ZINC000558052810    0.1000
     27 N27        -6.8085    2.1414   49.6864 N.2     1  ZINC000558052810   -0.3600
     28 C28        -5.7096    1.9175   50.3472 C.2     1  ZINC000558052810    0.0300
     29 C29        -4.6815    0.8548   50.0558 C.3     1  ZINC000558052810   -0.0800
     30 C30        -0.2736    2.0737   50.3983 C.ar    1  ZINC000558052810   -0.0700
     31 H31         0.4410    2.8614   44.7832 H       1  ZINC000558052810    0.0600
     32 H32         0.6399    1.1249   45.1193 H       1  ZINC000558052810    0.0600
     33 H33        -0.5361    1.6659   43.8977 H       1  ZINC000558052810    0.0700
     34 H34        -1.8721    2.7684   45.6719 H       1  ZINC000558052810    0.0800
     35 H35        -1.6732    1.0318   46.0080 H       1  ZINC000558052810    0.0800
     36 H36        -1.2996    4.0493   48.1128 H       1  ZINC000558052810    0.0600
     37 H37         0.4470    3.7891   48.3370 H       1  ZINC000558052810    0.0800
     38 H38        -0.1780    4.3226   46.7581 H       1  ZINC000558052810    0.0700
     39 H39         2.5092    1.1906   48.6688 H       1  ZINC000558052810    0.1400
     40 H40         3.5452    1.7290   50.8322 H       1  ZINC000558052810    0.1400
     41 H41         2.1556    2.4801   52.7160 H       1  ZINC000558052810    0.1300
     42 H42        -0.7744    2.1554   53.3523 H       1  ZINC000558052810    0.4100
     43 H43        -0.0135    4.5381   55.3804 H       1  ZINC000558052810    0.1400
     44 H44        -1.4806    5.2981   57.2311 H       1  ZINC000558052810    0.1500
     45 H45        -3.8635    5.7136   56.7979 H       1  ZINC000558052810    0.1700
     46 H46        -3.9143    2.2048   52.4067 H       1  ZINC000558052810    0.1000
     47 H47        -5.0887    3.0533   53.4408 H       1  ZINC000558052810    0.1000
     48 H48        -6.8929    5.6678   51.6685 H       1  ZINC000558052810    0.0900
     49 H49        -8.3738    4.7660   52.0710 H       1  ZINC000558052810    0.0900
     50 H50        -6.9279    4.6060   53.0966 H       1  ZINC000558052810    0.0900
     51 H51        -3.9317    1.2525   49.3717 H       1  ZINC000558052810    0.0800
     52 H52        -4.2003    0.5503   50.9851 H       1  ZINC000558052810    0.0800
     53 H53        -5.1688   -0.0069   49.5996 H       1  ZINC000558052810    0.0800
     54 H54        -1.3427    2.1689   50.2786 H       1  ZINC000558052810    0.1500
@<TRIPOS>BOND
     1     1     2    1
     2     1    31    1
     3     1    32    1
     4     1    33    1
     5     2     3    1
     6     2    34    1
     7     2    35    1
     8     3     4    1
     9     3     5   am
    10     4    36    1
    11     4    37    1
    12     4    38    1
    13     5     6    2
    14     5     7    1
    15     7    30   ar
    16     7     8   ar
    17     8     9   ar
    18     8    39    1
    19     9    10   ar
    20     9    40    1
    21    10    11   ar
    22    10    41    1
    23    11    12    1
    24    11    30   ar
    25    12    13   am
    26    12    42    1
    27    13    14    2
    28    13    15    1
    29    15    20   ar
    30    15    16   ar
    31    16    17   ar
    32    16    43    1
    33    17    18   ar
    34    17    44    1
    35    18    19   ar
    36    18    45    1
    37    19    20   ar
    38    20    21    1
    39    21    22    1
    40    22    23    1
    41    22    46    1
    42    22    47    1
    43    23    28    1
    44    23    24    2
    45    24    25    1
    46    24    26    1
    47    25    48    1
    48    25    49    1
    49    25    50    1
    50    26    27    1
    51    27    28    2
    52    28    29    1
    53    29    51    1
    54    29    52    1
    55    29    53    1
    56    30    54    1
@<TRIPOS>SUBSTRUCTURE
     1 ZINC000558052810        1 TEMP              0 ****  ****    0 ROOT


##########                                Name:    ZINC001078110631
##########                DOCK_Rotatable_Bonds:                   7
##########                         Heavy_Atoms:                  25
##########                    Molecular_Weight:             353.369
##########                DOCK_Rotatable_Bonds:                   7
##########                       Formal_Charge:           0.0100006
##########                     HBond_Acceptors:                   8
##########                        HBond_Donors:                   2
##########                         Heavy_Atoms:                  25
##########                          Grid_Score:          -30.911015
##########                     Grid_vdw_energy:          -30.677383
##########                      Grid_es_energy:           -0.233631
##########           Internal_energy_repulsive:            8.230670

@<TRIPOS>MOLECULE
ZINC001078110631
 46 48 1 0 0
SMALL
USER_CHARGES


@<TRIPOS>ATOM
      1 O1         -2.1197    2.2098   51.0379 O.2     1  ZINC001078110631   -0.5100
      2 C2         -2.9589    1.9489   50.1976 C.2     1  ZINC001078110631    0.5600
      3 N3         -2.6077    1.8594   48.8995 N.am    1  ZINC001078110631   -0.7200
      4 C4         -1.2159    2.0824   48.5002 C.3     1  ZINC001078110631    0.1500
      5 H5         -0.8096    2.9526   49.0155 H       1  ZINC001078110631    0.1200
      6 C6         -1.1207    2.2720   46.9710 C.3     1  ZINC001078110631    0.0300
      7 N7          0.1445    1.5940   46.5878 N.3     1  ZINC001078110631   -0.5000
      8 C8          0.1452    1.2489   45.1599 C.3     1  ZINC001078110631    0.0300
      9 C9          0.9436    2.2972   44.3823 C.3     1  ZINC001078110631    0.1300
     10 N10         2.1271    1.6690   43.7899 N.am    1  ZINC001078110631   -0.6200
     11 C11         2.4700    1.7289   42.3641 C.3     1  ZINC001078110631    0.1000
     12 C12         3.9604    1.3309   42.2818 C.3     1  ZINC001078110631   -0.1300
     13 C13         4.1281    0.4710   43.5559 C.3     1  ZINC001078110631   -0.1600
     14 C14         3.0413    0.9687   44.4831 C.2     1  ZINC001078110631    0.5200
     15 O15         2.9974    0.7601   45.6771 O.2     1  ZINC001078110631   -0.5200
     16 C16         0.1731    0.3712   47.4310 C.3     1  ZINC001078110631    0.0000
     17 C17        -0.3643    0.8329   48.8053 C.3     1  ZINC001078110631    0.1000
     18 H18        -0.9821    0.0536   49.2515 H       1  ZINC001078110631    0.0700
     19 O19         0.7193    1.1654   49.6757 O.3     1  ZINC001078110631   -0.5500
     20 C20        -4.3609    1.7243   50.5999 C.ar    1  ZINC001078110631   -0.1900
     21 C21        -5.0088    0.5367   50.2518 C.ar    1  ZINC001078110631   -0.0300
     22 C22        -6.3179    0.3321   50.6298 C.ar    1  ZINC001078110631   -0.1700
     23 C23        -6.9942    1.3020   51.3551 C.ar    1  ZINC001078110631    0.1600
     24 F24        -8.2777    1.0944   51.7222 F       1  ZINC001078110631   -0.1200
     25 C25        -6.3592    2.4825   51.7049 C.ar    1  ZINC001078110631   -0.2000
     26 C26        -5.0451    2.6978   51.3365 C.ar    1  ZINC001078110631    0.2000
     27 F27        -4.4258    3.8489   51.6776 F       1  ZINC001078110631   -0.1000
     28 H28        -3.2765    1.6473   48.2297 H       1  ZINC001078110631    0.4000
     29 H29        -1.9697    1.8006   46.4759 H       1  ZINC001078110631    0.0500
     30 H30        -1.0745    3.3320   46.7216 H       1  ZINC001078110631    0.1000
     31 H31         0.6023    0.2689   45.0232 H       1  ZINC001078110631    0.0400
     32 H32        -0.8802    1.2261   44.7911 H       1  ZINC001078110631    0.0800
     33 H33         0.3205    2.7159   43.5920 H       1  ZINC001078110631    0.0900
     34 H34         1.2548    3.0926   45.0594 H       1  ZINC001078110631    0.0800
     35 H35         1.8597    1.0241   41.7995 H       1  ZINC001078110631    0.0700
     36 H36         2.3282    2.7406   41.9841 H       1  ZINC001078110631    0.0800
     37 H37         4.1582    0.7429   41.3855 H       1  ZINC001078110631    0.0900
     38 H38         4.6019    2.2115   42.3183 H       1  ZINC001078110631    0.0800
     39 H39         3.9842   -0.5846   43.3253 H       1  ZINC001078110631    0.1100
     40 H40         5.1096    0.6350   44.0005 H       1  ZINC001078110631    0.1000
     41 H41        -0.4734   -0.3976   47.0079 H       1  ZINC001078110631    0.0600
     42 H42         1.1934    0.0001   47.5280 H       1  ZINC001078110631    0.0900
     43 H43         0.9586    2.1022   49.6657 H       1  ZINC001078110631    0.3800
     44 H44        -4.4845   -0.2198   49.6869 H       1  ZINC001078110631    0.1500
     45 H45        -6.8188   -0.5859   50.3604 H       1  ZINC001078110631    0.1500
     46 H46        -6.8909    3.2341   52.2696 H       1  ZINC001078110631    0.1600
@<TRIPOS>BOND
     1     1     2    2
     2     2     3   am
     3     2    20    1
     4     3     4    1
     5     3    28    1
     6     4     5    1
     7     4    17    1
     8     4     6    1
     9     6     7    1
    10     6    29    1
    11     6    30    1
    12     7     8    1
    13     7    16    1
    14     8     9    1
    15     8    31    1
    16     8    32    1
    17     9    10    1
    18     9    33    1
    19     9    34    1
    20    10    14   am
    21    10    11    1
    22    11    12    1
    23    11    35    1
    24    11    36    1
    25    12    13    1
    26    12    37    1
    27    12    38    1
    28    13    14    1
    29    13    39    1
    30    13    40    1
    31    14    15    2
    32    16    17    1
    33    16    41    1
    34    16    42    1
    35    17    18    1
    36    17    19    1
    37    19    43    1
    38    20    26   ar
    39    20    21   ar
    40    21    22   ar
    41    21    44    1
    42    22    23   ar
    43    22    45    1
    44    23    24    1
    45    23    25   ar
    46    25    26   ar
    47    25    46    1
    48    26    27    1
@<TRIPOS>SUBSTRUCTURE
     1 ZINC001078110631        1 TEMP              0 ****  ****    0 ROOT


##########                                Name:    ZINC001000186632
##########                DOCK_Rotatable_Bonds:                   7
##########                         Heavy_Atoms:                  23
##########                    Molecular_Weight:             342.379
##########                DOCK_Rotatable_Bonds:                   7
##########                       Formal_Charge:          -0.0100001
##########                     HBond_Acceptors:                  11
##########                        HBond_Donors:                   2
##########                         Heavy_Atoms:                  23
##########                          Grid_Score:          -30.908939
##########                     Grid_vdw_energy:          -29.122093
##########                      Grid_es_energy:           -1.786847
##########           Internal_energy_repulsive:            7.628098

@<TRIPOS>MOLECULE
ZINC001000186632
 41 43 1 0 0
SMALL
USER_CHARGES


@<TRIPOS>ATOM
      1 O1         -7.1210    4.9122   51.0571 O.2     1  ZINC001000186632   -0.5200
      2 C2         -7.0148    4.3725   49.9762 C.2     1  ZINC001000186632    0.5300
      3 C3         -7.3067    5.1458   48.7161 C.3     1  ZINC001000186632   -0.0500
      4 C4         -8.7970    5.3033   48.5572 C.2     1  ZINC001000186632    0.2400
      5 N5         -9.3942    6.2747   47.9181 N.2     1  ZINC001000186632   -0.3000
      6 N6        -10.7748    6.0353   48.0144 N.pl3   1  ZINC001000186632   -0.4800
      7 C7        -10.9138    4.9032   48.7257 C.2     1  ZINC001000186632    0.2700
      8 N8         -9.7194    4.4720   49.0403 N.2     1  ZINC001000186632   -0.5400
      9 N9         -6.6304    3.0828   49.9016 N.am    1  ZINC001000186632   -0.7100
     10 C10        -6.3467    2.3312   51.1266 C.3     1  ZINC001000186632    0.1100
     11 C11        -5.6757    0.9684   50.8762 C.3     1  ZINC001000186632    0.1000
     12 N12        -4.3942    1.6905   50.9951 N.am    1  ZINC001000186632   -0.6500
     13 C13        -3.1439    1.4772   50.5390 C.2     1  ZINC001000186632    0.5100
     14 O14        -2.9026    0.4967   49.8671 O.2     1  ZINC001000186632   -0.5100
     15 C15        -2.0460    2.4570   50.8637 C.3     1  ZINC001000186632    0.1500
     16 N16        -0.9436    2.2876   49.9138 N.am    1  ZINC001000186632   -0.9800
     17 C17        -1.0690    2.0345   48.4705 C.3     1  ZINC001000186632    0.0800
     18 C18         0.1474    2.6140   47.7234 C.3     1  ZINC001000186632   -0.1300
     19 C19         1.3701    2.1697   48.5771 C.3     1  ZINC001000186632   -0.6000
     20 S20         0.6868    2.3536   50.2693 S.o2    1  ZINC001000186632    2.5700
     21 O21         0.9095    3.6627   50.7752 O.2     1  ZINC001000186632   -0.9400
     22 O22         0.9361    1.1955   51.0540 O.2     1  ZINC001000186632   -0.9600
     23 C23        -5.0313    2.7399   51.8140 C.3     1  ZINC001000186632    0.0900
     24 H24        -6.8419    6.1299   48.7777 H       1  ZINC001000186632    0.1300
     25 H25        -6.9047    4.6072   47.8579 H       1  ZINC001000186632    0.1200
     26 H26       -11.4865    6.5791   47.6420 H       1  ZINC001000186632    0.4400
     27 H27       -11.8486    4.4300   48.9885 H       1  ZINC001000186632    0.2200
     28 H28        -6.5417    2.6524   49.0368 H       1  ZINC001000186632    0.4100
     29 H29        -7.1996    2.2844   51.8037 H       1  ZINC001000186632    0.1200
     30 H30        -5.8462    0.2421   51.6709 H       1  ZINC001000186632    0.1000
     31 H31        -5.8612    0.5635   49.8814 H       1  ZINC001000186632    0.0900
     32 H32        -2.4334    3.4734   50.7931 H       1  ZINC001000186632    0.1100
     33 H33        -1.6846    2.2754   51.8758 H       1  ZINC001000186632    0.1100
     34 H34        -1.1221    0.9600   48.2954 H       1  ZINC001000186632    0.0800
     35 H35        -1.9791    2.5053   48.0989 H       1  ZINC001000186632    0.0900
     36 H36         0.2120    2.1964   46.7188 H       1  ZINC001000186632    0.1100
     37 H37         0.0865    3.7015   47.6820 H       1  ZINC001000186632    0.1000
     38 H38         1.6404    1.1346   48.3685 H       1  ZINC001000186632    0.1400
     39 H39         2.2198    2.8350   48.4238 H       1  ZINC001000186632    0.1400
     40 H40        -4.7023    3.7495   51.5678 H       1  ZINC001000186632    0.0900
     41 H41        -5.0124    2.5341   52.8843 H       1  ZINC001000186632    0.1100
@<TRIPOS>BOND
     1     1     2    2
     2     2     3    1
     3     2     9   am
     4     3     4    1
     5     3    24    1
     6     3    25    1
     7     4     8    1
     8     4     5    2
     9     5     6    1
    10     6     7    1
    11     6    26    1
    12     7     8    2
    13     7    27    1
    14     9    10    1
    15     9    28    1
    16    10    23    1
    17    10    11    1
    18    10    29    1
    19    11    12    1
    20    11    30    1
    21    11    31    1
    22    12    13   am
    23    12    23    1
    24    13    14    2
    25    13    15    1
    26    15    16    1
    27    15    32    1
    28    15    33    1
    29    16    20   am
    30    16    17    1
    31    17    18    1
    32    17    34    1
    33    17    35    1
    34    18    19    1
    35    18    36    1
    36    18    37    1
    37    19    20    1
    38    19    38    1
    39    19    39    1
    40    20    21    2
    41    20    22    2
    42    23    40    1
    43    23    41    1
@<TRIPOS>SUBSTRUCTURE
     1 ZINC001000186632        1 TEMP              0 ****  ****    0 ROOT


##########                                Name:    ZINC000077537368
##########                DOCK_Rotatable_Bonds:                   5
##########                         Heavy_Atoms:                  27
##########                    Molecular_Weight:             365.478
##########                DOCK_Rotatable_Bonds:                   5
##########                       Formal_Charge:          -0.0400007
##########                     HBond_Acceptors:                   6
##########                        HBond_Donors:                   0
##########                         Heavy_Atoms:                  27
##########                          Grid_Score:          -30.907166
##########                     Grid_vdw_energy:          -30.411453
##########                      Grid_es_energy:           -0.495712
##########           Internal_energy_repulsive:           11.203684

@<TRIPOS>MOLECULE
ZINC000077537368
 54 56 1 0 0
SMALL
USER_CHARGES


@<TRIPOS>ATOM
      1 C1          0.9950    0.5718   43.3167 C.3     1  ZINC000077537368    0.0800
      2 N2          1.1860    1.9713   43.7054 N.pl3   1  ZINC000077537368   -0.2600
      3 N3          1.0478    2.9819   42.9247 N.2     1  ZINC000077537368   -0.2700
      4 C4          1.2854    4.1002   43.5613 C.2     1  ZINC000077537368    0.0400
      5 C5          1.2211    5.4865   42.9738 C.3     1  ZINC000077537368    0.0200
      6 C6          0.6778    6.4599   44.0218 C.3     1  ZINC000077537368   -0.1400
      7 C7          2.6237    5.9257   42.5486 C.3     1  ZINC000077537368   -0.1400
      8 C8          0.2967    5.4815   41.7546 C.3     1  ZINC000077537368   -0.1400
      9 C9          1.6084    3.7810   44.8821 C.2     1  ZINC000077537368   -0.2000
     10 C10         1.5326    2.4010   44.9549 C.2     1  ZINC000077537368   -0.0400
     11 C11         1.7838    1.5637   46.1387 C.2     1  ZINC000077537368    0.5900
     12 O12         2.8648    1.0257   46.2847 O.2     1  ZINC000077537368   -0.5400
     13 N13         0.8160    1.3930   47.0611 N.am    1  ZINC000077537368   -0.6000
     14 C14         1.0480    0.5653   48.2545 C.3     1  ZINC000077537368    0.0800
     15 C15         0.6492    1.3746   49.4931 C.3     1  ZINC000077537368    0.0400
     16 N16        -0.7274    1.8621   49.3333 N.3     1  ZINC000077537368   -0.5300
     17 C17        -1.2082    2.4955   50.5684 C.3     1  ZINC000077537368    0.0900
     18 C18        -2.6569    2.1409   50.7837 C.ar    1  ZINC000077537368   -0.0500
     19 C19        -3.0921    0.8488   50.5480 C.ar    1  ZINC000077537368   -0.1200
     20 C20        -4.4169    0.5174   50.7427 C.ar    1  ZINC000077537368   -0.0700
     21 C21        -5.3194    1.4894   51.1791 C.ar    1  ZINC000077537368   -0.0300
     22 C22        -6.6960    1.1524   51.3839 C.1     1  ZINC000077537368    0.2500
     23 N23        -7.7882    0.8851   51.5462 N.1     1  ZINC000077537368   -0.4100
     24 C24        -4.8734    2.7913   51.4155 C.ar    1  ZINC000077537368   -0.0700
     25 C25        -3.5447    3.1076   51.2218 C.ar    1  ZINC000077537368   -0.1000
     26 C26        -0.8381    2.7811   48.1927 C.3     1  ZINC000077537368    0.0400
     27 C27        -0.4982    2.0345   46.9038 C.3     1  ZINC000077537368    0.1200
     28 H28        -0.0189    0.2602   43.5677 H       1  ZINC000077537368    0.0800
     29 H29         1.1514    0.4684   42.2429 H       1  ZINC000077537368    0.1000
     30 H30         1.7101   -0.0543   43.8500 H       1  ZINC000077537368    0.1100
     31 H31         1.3363    6.4634   44.8904 H       1  ZINC000077537368    0.0600
     32 H32         0.6314    7.4626   43.5969 H       1  ZINC000077537368    0.0600
     33 H33        -0.3214    6.1470   44.3247 H       1  ZINC000077537368    0.0600
     34 H34         3.0108    5.2323   41.8020 H       1  ZINC000077537368    0.0600
     35 H35         2.5773    6.9284   42.1236 H       1  ZINC000077537368    0.0600
     36 H36         3.2823    5.9292   43.4171 H       1  ZINC000077537368    0.0600
     37 H37        -0.7025    5.1686   42.0576 H       1  ZINC000077537368    0.0600
     38 H38         0.2503    6.4842   41.3297 H       1  ZINC000077537368    0.0600
     39 H39         0.6839    4.7881   41.0080 H       1  ZINC000077537368    0.0600
     40 H40         1.8602    4.4658   45.6785 H       1  ZINC000077537368    0.1700
     41 H41         0.4415   -0.3386   48.1968 H       1  ZINC000077537368    0.0800
     42 H42         2.1030    0.2985   48.3155 H       1  ZINC000077537368    0.1200
     43 H43         0.7099    0.7400   50.3772 H       1  ZINC000077537368    0.0900
     44 H44         1.3245    2.2227   49.6065 H       1  ZINC000077537368    0.0400
     45 H45        -0.6178    2.1399   51.4128 H       1  ZINC000077537368    0.0900
     46 H46        -1.1076    3.5776   50.4847 H       1  ZINC000077537368    0.0500
     47 H47        -2.3929    0.0980   50.2104 H       1  ZINC000077537368    0.1300
     48 H48        -4.7554   -0.4913   50.5577 H       1  ZINC000077537368    0.1300
     49 H49        -5.5662    3.5478   51.7533 H       1  ZINC000077537368    0.1300
     50 H50        -3.1983    4.1140   51.4046 H       1  ZINC000077537368    0.1400
     51 H51        -1.8559    3.1666   48.1336 H       1  ZINC000077537368    0.1000
     52 H52        -0.1421    3.6095   48.3241 H       1  ZINC000077537368    0.0400
     53 H53        -0.4672    2.7370   46.0710 H       1  ZINC000077537368    0.1000
     54 H54        -1.2517    1.2701   46.7138 H       1  ZINC000077537368    0.0800
@<TRIPOS>BOND
     1     1     2    1
     2     1    28    1
     3     1    29    1
     4     1    30    1
     5     2    10    1
     6     2     3    1
     7     3     4    2
     8     4     5    1
     9     4     9    1
    10     5     6    1
    11     5     7    1
    12     5     8    1
    13     6    31    1
    14     6    32    1
    15     6    33    1
    16     7    34    1
    17     7    35    1
    18     7    36    1
    19     8    37    1
    20     8    38    1
    21     8    39    1
    22     9    10    2
    23     9    40    1
    24    10    11    1
    25    11    12    2
    26    11    13   am
    27    13    27    1
    28    13    14    1
    29    14    15    1
    30    14    41    1
    31    14    42    1
    32    15    16    1
    33    15    43    1
    34    15    44    1
    35    16    17    1
    36    16    26    1
    37    17    18    1
    38    17    45    1
    39    17    46    1
    40    18    25   ar
    41    18    19   ar
    42    19    20   ar
    43    19    47    1
    44    20    21   ar
    45    20    48    1
    46    21    22    1
    47    21    24   ar
    48    22    23    3
    49    24    25   ar
    50    24    49    1
    51    25    50    1
    52    26    27    1
    53    26    51    1
    54    26    52    1
    55    27    53    1
    56    27    54    1
@<TRIPOS>SUBSTRUCTURE
     1 ZINC000077537368        1 TEMP              0 ****  ****    0 ROOT


##########                                Name:    ZINC000426567005
##########                DOCK_Rotatable_Bonds:                   9
##########                         Heavy_Atoms:                  31
##########                    Molecular_Weight:             417.467
##########                DOCK_Rotatable_Bonds:                   9
##########                       Formal_Charge:        -2.23517e-07
##########                     HBond_Acceptors:                   8
##########                        HBond_Donors:                   4
##########                         Heavy_Atoms:                  31
##########                          Grid_Score:          -30.895317
##########                     Grid_vdw_energy:          -30.419666
##########                      Grid_es_energy:           -0.475651
##########           Internal_energy_repulsive:           14.165185

@<TRIPOS>MOLECULE
ZINC000426567005
 54 57 1 0 0
SMALL
USER_CHARGES


@<TRIPOS>ATOM
      1 O1         -0.6710    1.0727   50.5052 O.2     1  ZINC000426567005   -0.4900
      2 C2         -1.4660    1.2437   49.6040 C.2     1  ZINC000426567005    0.5200
      3 N3         -1.0326    1.3331   48.3310 N.am    1  ZINC000426567005   -0.6000
      4 C4          0.3344    1.2347   48.0487 C.2     1  ZINC000426567005    0.3000
      5 N5          1.2716    0.8689   48.8920 N.2     1  ZINC000426567005   -0.3100
      6 N6          2.5002    0.9007   48.2200 N.pl3   1  ZINC000426567005   -0.4600
      7 C7          2.2721    1.2961   46.9496 C.2     1  ZINC000426567005    0.1100
      8 C8          3.3132    1.4680   45.8736 C.3     1  ZINC000426567005   -0.0300
      9 C9          2.9491    2.6586   44.9523 C.3     1  ZINC000426567005   -0.1200
     10 C10         4.3209    3.0623   44.3573 C.3     1  ZINC000426567005   -0.1300
     11 C11         5.3089    2.8827   45.5284 C.3     1  ZINC000426567005   -0.1300
     12 C12         4.6682    1.8691   46.4926 C.3     1  ZINC000426567005   -0.1200
     13 C13         0.9432    1.5040   46.8119 C.2     1  ZINC000426567005   -0.2600
     14 C14        -2.9241    1.3487   49.9051 C.2     1  ZINC000426567005    0.5200
     15 O15        -3.7288    1.4026   48.9979 O.2     1  ZINC000426567005   -0.4900
     16 N16        -3.3473    1.3838   51.1842 N.am    1  ZINC000426567005   -0.6400
     17 C17        -4.7079    1.4818   51.4651 C.ar    1  ZINC000426567005    0.1700
     18 C18        -5.1976    2.5902   52.1497 C.ar    1  ZINC000426567005   -0.1300
     19 C19        -6.5419    2.6901   52.4289 C.ar    1  ZINC000426567005   -0.0300
     20 C20        -7.4154    1.6771   52.0235 C.ar    1  ZINC000426567005   -0.1500
     21 C21        -8.8572    1.7811   52.3206 C.2     1  ZINC000426567005    0.5600
     22 O22        -9.5468    2.5783   51.7144 O.2     1  ZINC000426567005   -0.5100
     23 N23        -9.4094    0.9927   53.2639 N.am    1  ZINC000426567005   -0.6700
     24 C24       -10.7757    1.0913   53.5455 C.ar    1  ZINC000426567005    0.1400
     25 C25       -11.2144    1.8902   54.5934 C.ar    1  ZINC000426567005   -0.1500
     26 C26       -12.5645    1.9860   54.8686 C.ar    1  ZINC000426567005   -0.1000
     27 C27       -13.4790    1.2873   54.1020 C.ar    1  ZINC000426567005   -0.1300
     28 C28       -13.0455    0.4906   53.0581 C.ar    1  ZINC000426567005   -0.1000
     29 C29       -11.6974    0.3952   52.7740 C.ar    1  ZINC000426567005   -0.1200
     30 C30        -6.9206    0.5655   51.3357 C.ar    1  ZINC000426567005   -0.0600
     31 C31        -5.5759    0.4739   51.0554 C.ar    1  ZINC000426567005   -0.1400
     32 H32        -1.6683    1.4656   47.6103 H       1  ZINC000426567005    0.4300
     33 H33         3.3640    0.6776   48.6009 H       1  ZINC000426567005    0.4400
     34 H34         3.4154    0.5511   45.2930 H       1  ZINC000426567005    0.1100
     35 H35         2.2644    2.3427   44.1652 H       1  ZINC000426567005    0.0800
     36 H36         2.5227    3.4783   45.5307 H       1  ZINC000426567005    0.0700
     37 H37         4.5865    2.4043   43.5299 H       1  ZINC000426567005    0.0700
     38 H38         4.3034    4.1015   44.0288 H       1  ZINC000426567005    0.0700
     39 H39         6.2594    2.4976   45.1593 H       1  ZINC000426567005    0.0700
     40 H40         5.4632    3.8348   46.0361 H       1  ZINC000426567005    0.0700
     41 H41         4.5114    2.3292   47.4681 H       1  ZINC000426567005    0.0600
     42 H42         5.3077    0.9919   46.5914 H       1  ZINC000426567005    0.0700
     43 H43         0.4400    1.8268   45.9125 H       1  ZINC000426567005    0.1700
     44 H44        -2.7043    1.3408   51.9092 H       1  ZINC000426567005    0.4300
     45 H45        -4.5222    3.3726   52.4627 H       1  ZINC000426567005    0.1500
     46 H46        -6.9211    3.5500   52.9608 H       1  ZINC000426567005    0.1400
     47 H47        -8.8593    0.3568   53.7474 H       1  ZINC000426567005    0.4100
     48 H48       -10.5006    2.4358   55.1928 H       1  ZINC000426567005    0.1300
     49 H49       -12.9061    2.6067   55.6836 H       1  ZINC000426567005    0.1300
     50 H50       -14.5342    1.3638   54.3192 H       1  ZINC000426567005    0.1200
     51 H51       -13.7623   -0.0542   52.4617 H       1  ZINC000426567005    0.1300
     52 H52       -11.3594   -0.2269   51.9585 H       1  ZINC000426567005    0.1300
     53 H53        -7.5929   -0.2191   51.0214 H       1  ZINC000426567005    0.1300
     54 H54        -5.1929   -0.3847   50.5239 H       1  ZINC000426567005    0.1400
@<TRIPOS>BOND
     1     1     2    2
     2     2     3   am
     3     2    14    1
     4     3     4    1
     5     3    32    1
     6     4    13    1
     7     4     5    2
     8     5     6    1
     9     6     7    1
    10     6    33    1
    11     7     8    1
    12     7    13    2
    13     8    12    1
    14     8     9    1
    15     8    34    1
    16     9    10    1
    17     9    35    1
    18     9    36    1
    19    10    11    1
    20    10    37    1
    21    10    38    1
    22    11    12    1
    23    11    39    1
    24    11    40    1
    25    12    41    1
    26    12    42    1
    27    13    43    1
    28    14    15    2
    29    14    16   am
    30    16    17    1
    31    16    44    1
    32    17    31   ar
    33    17    18   ar
    34    18    19   ar
    35    18    45    1
    36    19    20   ar
    37    19    46    1
    38    20    21    1
    39    20    30   ar
    40    21    22    2
    41    21    23   am
    42    23    24    1
    43    23    47    1
    44    24    29   ar
    45    24    25   ar
    46    25    26   ar
    47    25    48    1
    48    26    27   ar
    49    26    49    1
    50    27    28   ar
    51    27    50    1
    52    28    29   ar
    53    28    51    1
    54    29    52    1
    55    30    31   ar
    56    30    53    1
    57    31    54    1
@<TRIPOS>SUBSTRUCTURE
     1 ZINC000426567005        1 TEMP              0 ****  ****    0 ROOT


##########                                Name:    ZINC000523863446
##########                DOCK_Rotatable_Bonds:                  10
##########                         Heavy_Atoms:                  29
##########                    Molecular_Weight:             396.533
##########                DOCK_Rotatable_Bonds:                  10
##########                       Formal_Charge:          -0.0200008
##########                     HBond_Acceptors:                   6
##########                        HBond_Donors:                   1
##########                         Heavy_Atoms:                  29
##########                          Grid_Score:          -30.882553
##########                     Grid_vdw_energy:          -30.251108
##########                      Grid_es_energy:           -0.631445
##########           Internal_energy_repulsive:           16.660814

@<TRIPOS>MOLECULE
ZINC000523863446
 61 63 1 0 0
SMALL
USER_CHARGES


@<TRIPOS>ATOM
      1 C1          3.8221    1.1138   45.5262 C.3     1  ZINC000523863446   -0.1700
      2 C2          2.3822    1.1516   45.0101 C.3     1  ZINC000523863446    0.1500
      3 H3          1.8450    0.2730   45.3674 H       1  ZINC000523863446    0.1300
      4 C4          1.7002    2.3971   45.5147 C.2     1  ZINC000523863446    0.5100
      5 O5          2.3557    3.3827   45.7789 O.2     1  ZINC000523863446   -0.5100
      6 N6          0.3619    2.4156   45.6726 N.am    1  ZINC000523863446   -0.6000
      7 C7         -0.4297    1.2245   45.3553 C.3     1  ZINC000523863446    0.0700
      8 C8         -0.3013    3.6271   46.1616 C.3     1  ZINC000523863446    0.1000
      9 C9         -0.3499    3.6001   47.6675 C.2     1  ZINC000523863446    0.5000
     10 O10        -0.6183    4.6096   48.2838 O.2     1  ZINC000523863446   -0.5200
     11 N11        -0.0951    2.4541   48.3294 N.am    1  ZINC000523863446   -0.7200
     12 C12        -0.1440    2.4274   49.7934 C.3     1  ZINC000523863446    0.1900
     13 H13         0.2320    3.3718   50.1869 H       1  ZINC000523863446    0.1000
     14 C14         0.7224    1.2779   50.3118 C.3     1  ZINC000523863446   -0.1200
     15 C15         2.1654    1.7598   50.4741 C.3     1  ZINC000523863446   -0.0900
     16 C16         2.4728    1.9580   51.9598 C.3     1  ZINC000523863446   -0.1200
     17 C17         3.9158    2.4400   52.1221 C.3     1  ZINC000523863446   -0.1200
     18 C18         4.8707    1.3967   51.5385 C.3     1  ZINC000523863446   -0.1200
     19 C19         4.5633    1.1985   50.0529 C.3     1  ZINC000523863446   -0.1200
     20 C20         3.1203    0.7165   49.8905 C.3     1  ZINC000523863446   -0.1100
     21 C21        -1.5678    2.2264   50.2448 C.ar    1  ZINC000523863446   -0.0900
     22 C22        -2.2501    1.0780   49.8891 C.ar    1  ZINC000523863446   -0.1100
     23 C23        -3.5560    0.8937   50.3031 C.ar    1  ZINC000523863446   -0.1200
     24 C24        -4.1794    1.8577   51.0733 C.ar    1  ZINC000523863446   -0.1200
     25 C25        -3.4969    3.0056   51.4298 C.ar    1  ZINC000523863446   -0.1200
     26 C26        -2.1895    3.1879   51.0193 C.ar    1  ZINC000523863446   -0.1000
     27 N27         2.3885    1.1577   43.5451 N.pl3   1  ZINC000523863446   -0.3600
     28 C28         2.4112    2.2521   42.7558 C.2     1  ZINC000523863446    0.0600
     29 C29         2.4092    1.8328   41.4692 C.2     1  ZINC000523863446   -0.2700
     30 C30         2.3844    0.4343   41.4724 C.2     1  ZINC000523863446    0.0500
     31 N31         2.3781    0.0285   42.7163 N.2     1  ZINC000523863446   -0.2900
     32 H32         4.3593    1.9924   45.1688 H       1  ZINC000523863446    0.0700
     33 H33         3.8173    1.1092   46.6161 H       1  ZINC000523863446    0.1000
     34 H34         4.3154    0.2130   45.1612 H       1  ZINC000523863446    0.0800
     35 H35        -0.5166    0.5987   46.2435 H       1  ZINC000523863446    0.0700
     36 H36        -1.4237    1.5263   45.0247 H       1  ZINC000523863446    0.0800
     37 H37         0.0620    0.6624   44.5614 H       1  ZINC000523863446    0.0800
     38 H38         0.2554    4.5043   45.8317 H       1  ZINC000523863446    0.1100
     39 H39        -1.3160    3.6707   45.7659 H       1  ZINC000523863446    0.1100
     40 H40         0.1208    1.6470   47.8366 H       1  ZINC000523863446    0.4000
     41 H41         0.3410    0.9415   51.2759 H       1  ZINC000523863446    0.0800
     42 H42         0.6931    0.4517   49.6013 H       1  ZINC000523863446    0.0700
     43 H43         2.2942    2.7052   49.9472 H       1  ZINC000523863446    0.0700
     44 H44         1.7926    2.7012   52.3755 H       1  ZINC000523863446    0.0600
     45 H45         2.3440    1.0125   52.4867 H       1  ZINC000523863446    0.0600
     46 H46         4.0446    3.3854   51.5952 H       1  ZINC000523863446    0.0600
     47 H47         4.1348    2.5811   53.1805 H       1  ZINC000523863446    0.0600
     48 H48         5.8987    1.7401   51.6542 H       1  ZINC000523863446    0.0600
     49 H49         4.7420    0.4512   52.0654 H       1  ZINC000523863446    0.0600
     50 H50         4.6920    2.1440   49.5259 H       1  ZINC000523863446    0.0600
     51 H51         5.2436    0.4552   49.6371 H       1  ZINC000523863446    0.0600
     52 H52         2.9916   -0.2289   50.4174 H       1  ZINC000523863446    0.0600
     53 H53         2.9014    0.5753   48.8321 H       1  ZINC000523863446    0.0600
     54 H54        -1.7630    0.3250   49.2874 H       1  ZINC000523863446    0.1200
     55 H55        -4.0893   -0.0031   50.0246 H       1  ZINC000523863446    0.1200
     56 H56        -5.2000    1.7139   51.3962 H       1  ZINC000523863446    0.1200
     57 H57        -3.9841    3.7588   52.0312 H       1  ZINC000523863446    0.1200
     58 H58        -1.6561    4.0849   51.2978 H       1  ZINC000523863446    0.1200
     59 H59         2.4277    3.2786   43.0910 H       1  ZINC000523863446    0.1700
     60 H60         2.4236    2.4661   40.5945 H       1  ZINC000523863446    0.1500
     61 H61         2.3769   -0.2008   40.5989 H       1  ZINC000523863446    0.1800
@<TRIPOS>BOND
     1     1     2    1
     2     1    32    1
     3     1    33    1
     4     1    34    1
     5     2     3    1
     6     2     4    1
     7     2    27    1
     8     4     5    2
     9     4     6   am
    10     6     7    1
    11     6     8    1
    12     7    35    1
    13     7    36    1
    14     7    37    1
    15     8     9    1
    16     8    38    1
    17     8    39    1
    18     9    10    2
    19     9    11   am
    20    11    12    1
    21    11    40    1
    22    12    13    1
    23    12    14    1
    24    12    21    1
    25    14    15    1
    26    14    41    1
    27    14    42    1
    28    15    20    1
    29    15    16    1
    30    15    43    1
    31    16    17    1
    32    16    44    1
    33    16    45    1
    34    17    18    1
    35    17    46    1
    36    17    47    1
    37    18    19    1
    38    18    48    1
    39    18    49    1
    40    19    20    1
    41    19    50    1
    42    19    51    1
    43    20    52    1
    44    20    53    1
    45    21    26   ar
    46    21    22   ar
    47    22    23   ar
    48    22    54    1
    49    23    24   ar
    50    23    55    1
    51    24    25   ar
    52    24    56    1
    53    25    26   ar
    54    25    57    1
    55    26    58    1
    56    27    31    1
    57    27    28    1
    58    28    29    2
    59    28    59    1
    60    29    30    1
    61    29    60    1
    62    30    31    2
    63    30    61    1
@<TRIPOS>SUBSTRUCTURE
     1 ZINC000523863446        1 TEMP              0 ****  ****    0 ROOT


##########                                Name:    ZINC001143596311
##########                DOCK_Rotatable_Bonds:                   9
##########                         Heavy_Atoms:                  21
##########                    Molecular_Weight:             335.811
##########                DOCK_Rotatable_Bonds:                   9
##########                       Formal_Charge:          0.00999959
##########                     HBond_Acceptors:                   9
##########                        HBond_Donors:                   3
##########                         Heavy_Atoms:                  21
##########                          Grid_Score:          -30.882433
##########                     Grid_vdw_energy:          -28.253914
##########                      Grid_es_energy:           -2.628519
##########           Internal_energy_repulsive:           11.612915

@<TRIPOS>MOLECULE
ZINC001143596311
 39 39 1 0 0
SMALL
USER_CHARGES


@<TRIPOS>ATOM
      1 C1         -7.7807    4.3091   49.2308 C.3     1  ZINC001143596311    0.0400
      2 O2         -7.7298    4.2875   50.6588 O.3     1  ZINC001143596311   -0.2600
      3 N3         -6.4534    3.8223   51.2017 N.3     1  ZINC001143596311   -0.3700
      4 C4         -6.0738    4.5964   52.3911 C.3     1  ZINC001143596311    0.0000
      5 C5         -6.5017    2.3851   51.5023 C.3     1  ZINC001143596311    0.0400
      6 C6         -6.1297    1.5893   50.2497 C.3     1  ZINC001143596311   -0.1300
      7 C7         -5.2691    0.3878   50.6456 C.3     1  ZINC001143596311    0.1200
      8 N8         -3.9853    0.8587   51.1713 N.am    1  ZINC001143596311   -0.7200
      9 C9         -3.0512    1.3466   50.3311 C.2     1  ZINC001143596311    0.5600
     10 O10        -3.2745    1.3973   49.1373 O.2     1  ZINC001143596311   -0.5200
     11 C11        -1.7555    1.8200   50.8612 C.ar    1  ZINC001143596311   -0.1500
     12 C12        -1.7206    2.6902   51.9523 C.ar    1  ZINC001143596311   -0.0200
     13 C13        -0.5084    3.1286   52.4426 C.ar    1  ZINC001143596311   -0.1300
     14 C14         0.6727    2.7076   51.8546 C.ar    1  ZINC001143596311    0.0700
     15 Cl15        2.1947    3.2637   52.4773 Cl      1  ZINC001143596311   -0.0200
     16 C16         0.6444    1.8440   50.7716 C.ar    1  ZINC001143596311   -0.6800
     17 S17         2.1524    1.3134   50.0305 S.o2    1  ZINC001143596311    2.7000
     18 N18         1.7712    0.6594   48.5577 N.am    1  ZINC001143596311   -1.2500
     19 O19         2.9044    2.4894   49.7648 O.2     1  ZINC001143596311   -0.9400
     20 O20         2.6383    0.2443   50.8307 O.2     1  ZINC001143596311   -0.9500
     21 C21        -0.5611    1.3941   50.2765 C.ar    1  ZINC001143596311    0.0500
     22 H22        -7.0070    4.9756   48.8497 H       1  ZINC001143596311    0.0400
     23 H23        -7.6152    3.3028   48.8461 H       1  ZINC001143596311    0.0500
     24 H24        -8.7588    4.6654   48.9075 H       1  ZINC001143596311    0.0900
     25 H25        -6.8410    4.4849   53.1573 H       1  ZINC001143596311    0.0400
     26 H26        -5.1215    4.2298   52.7743 H       1  ZINC001143596311    0.0900
     27 H27        -5.9771    5.6487   52.1240 H       1  ZINC001143596311    0.0800
     28 H28        -5.7956    2.1570   52.3006 H       1  ZINC001143596311    0.0500
     29 H29        -7.5087    2.1139   51.8193 H       1  ZINC001143596311    0.0900
     30 H30        -7.0377    1.2396   49.7583 H       1  ZINC001143596311    0.0800
     31 H31        -5.5698    2.2279   49.5664 H       1  ZINC001143596311    0.0800
     32 H32        -5.7846   -0.1918   51.4113 H       1  ZINC001143596311    0.0800
     33 H33        -5.0956   -0.2389   49.7709 H       1  ZINC001143596311    0.0800
     34 H34        -3.8076    0.8193   52.1241 H       1  ZINC001143596311    0.4000
     35 H35        -2.6410    3.0197   52.4112 H       1  ZINC001143596311    0.1500
     36 H36        -0.4801    3.8018   53.2866 H       1  ZINC001143596311    0.1600
     37 H37         1.3297    1.2020   47.8857 H       1  ZINC001143596311    0.4200
     38 H38         1.9894   -0.2663   48.3670 H       1  ZINC001143596311    0.4200
     39 H39        -0.5820    0.7209   49.4322 H       1  ZINC001143596311    0.1700
@<TRIPOS>BOND
     1     1     2    1
     2     1    22    1
     3     1    23    1
     4     1    24    1
     5     2     3    1
     6     3     4    1
     7     3     5    1
     8     4    25    1
     9     4    26    1
    10     4    27    1
    11     5     6    1
    12     5    28    1
    13     5    29    1
    14     6     7    1
    15     6    30    1
    16     6    31    1
    17     7     8    1
    18     7    32    1
    19     7    33    1
    20     8     9   am
    21     8    34    1
    22     9    10    2
    23     9    11    1
    24    11    21   ar
    25    11    12   ar
    26    12    13   ar
    27    12    35    1
    28    13    14   ar
    29    13    36    1
    30    14    15    1
    31    14    16   ar
    32    16    17    1
    33    16    21   ar
    34    17    18   am
    35    17    19    2
    36    17    20    2
    37    18    37    1
    38    18    38    1
    39    21    39    1
@<TRIPOS>SUBSTRUCTURE
     1 ZINC001143596311        1 TEMP              0 ****  ****    0 ROOT


##########                                Name:    ZINC000543625960
##########                DOCK_Rotatable_Bonds:                   8
##########                         Heavy_Atoms:                  29
##########                    Molecular_Weight:             416.544
##########                DOCK_Rotatable_Bonds:                   8
##########                       Formal_Charge:           -0.010001
##########                     HBond_Acceptors:                   8
##########                        HBond_Donors:                   2
##########                         Heavy_Atoms:                  29
##########                          Grid_Score:          -30.857967
##########                     Grid_vdw_energy:          -30.809591
##########                      Grid_es_energy:           -0.048377
##########           Internal_energy_repulsive:           14.765436

@<TRIPOS>MOLECULE
ZINC000543625960
 57 59 1 0 0
SMALL
USER_CHARGES


@<TRIPOS>ATOM
      1 C1         -6.1412    2.7336   56.0691 C.3     1  ZINC000543625960   -0.1500
      2 C2         -7.1819    2.8584   54.9547 C.3     1  ZINC000543625960   -0.1300
      3 C3         -6.6149    3.7153   53.8210 C.3     1  ZINC000543625960    0.1500
      4 H4         -5.6306    3.3407   53.5398 H       1  ZINC000543625960    0.0800
      5 C5         -6.4933    5.1665   54.2902 C.3     1  ZINC000543625960   -0.1700
      6 N6         -7.5111    3.6497   52.6640 N.am    1  ZINC000543625960   -1.1100
      7 S7         -6.9051    3.8428   51.1351 S.o2    1  ZINC000543625960    2.7000
      8 O8         -7.9777    3.5771   50.2417 O.2     1  ZINC000543625960   -0.9600
      9 O9         -6.1837    5.0670   51.1410 O.2     1  ZINC000543625960   -0.9500
     10 C10        -5.7173    2.5666   50.8799 C.ar    1  ZINC000543625960   -0.6600
     11 C11        -6.1364    1.2780   50.6051 C.ar    1  ZINC000543625960   -0.0400
     12 C12        -5.2073    0.2734   50.4044 C.ar    1  ZINC000543625960   -0.1200
     13 C13        -3.8574    0.5548   50.4777 C.ar    1  ZINC000543625960   -0.0600
     14 C14        -3.4330    1.8483   50.7531 C.ar    1  ZINC000543625960    0.1500
     15 N15        -2.0657    2.1367   50.8281 N.am    1  ZINC000543625960   -0.6800
     16 C16        -1.2879    2.0030   49.7356 C.2     1  ZINC000543625960    0.7200
     17 O17        -1.7742    1.6319   48.6848 O.2     1  ZINC000543625960   -0.5600
     18 N18         0.0290    2.2808   49.8077 N.am    1  ZINC000543625960   -0.6300
     19 C19         0.7459    2.7376   51.0123 C.3     1  ZINC000543625960    0.0900
     20 C20         2.2195    2.3208   50.7786 C.3     1  ZINC000543625960   -0.1000
     21 H21         2.8997    2.9544   51.3478 H       1  ZINC000543625960    0.1000
     22 C22         2.4330    0.8451   51.1215 C.3     1  ZINC000543625960   -0.1500
     23 C23         2.3748    2.5665   49.2545 C.3     1  ZINC000543625960   -0.1200
     24 C24         0.9896    2.1724   48.7001 C.3     1  ZINC000543625960    0.2000
     25 H25         1.0176    1.1490   48.3260 H       1  ZINC000543625960    0.0900
     26 C26         0.5951    3.1128   47.5905 C.ar    1  ZINC000543625960   -0.1400
     27 C27         0.2281    4.4190   47.8746 C.ar    1  ZINC000543625960   -0.0600
     28 C28        -0.1268    5.2487   46.8218 C.ar    1  ZINC000543625960   -0.1700
     29 C29        -0.1031    4.7496   45.5335 C.ar    1  ZINC000543625960    0.1000
     30 N30         0.2516    3.5008   45.3003 N.ar    1  ZINC000543625960   -0.4800
     31 C31         0.6002    2.6853   46.2760 C.ar    1  ZINC000543625960    0.1200
     32 C32        -4.3682    2.8556   50.9490 C.ar    1  ZINC000543625960   -0.0500
     33 H33        -6.5452    2.1232   56.8768 H       1  ZINC000543625960    0.0600
     34 H34        -5.2404    2.2637   55.6742 H       1  ZINC000543625960    0.0600
     35 H35        -5.8965    3.7250   56.4505 H       1  ZINC000543625960    0.0500
     36 H36        -7.4266    1.8670   54.5733 H       1  ZINC000543625960    0.0700
     37 H37        -8.0827    3.3283   55.3496 H       1  ZINC000543625960    0.0800
     38 H38        -5.8265    5.2153   55.1511 H       1  ZINC000543625960    0.0700
     39 H39        -6.0894    5.7769   53.4826 H       1  ZINC000543625960    0.0700
     40 H40        -7.4776    5.5411   54.5714 H       1  ZINC000543625960    0.0600
     41 H41        -8.4597    3.4932   52.7935 H       1  ZINC000543625960    0.4200
     42 H42        -7.1916    1.0553   50.5476 H       1  ZINC000543625960    0.1400
     43 H43        -5.5379   -0.7321   50.1903 H       1  ZINC000543625960    0.1400
     44 H44        -3.1322   -0.2302   50.3214 H       1  ZINC000543625960    0.1400
     45 H45        -1.6777    2.4328   51.6663 H       1  ZINC000543625960    0.4100
     46 H46         0.6692    3.8203   51.1117 H       1  ZINC000543625960    0.0700
     47 H47         0.3486    2.2451   51.8998 H       1  ZINC000543625960    0.0800
     48 H48         1.7728    0.2306   50.5094 H       1  ZINC000543625960    0.0600
     49 H49         3.4698    0.5725   50.9239 H       1  ZINC000543625960    0.0600
     50 H50         2.2088    0.6808   52.1754 H       1  ZINC000543625960    0.0600
     51 H51         2.5904    3.6158   49.0530 H       1  ZINC000543625960    0.0800
     52 H52         3.1512    1.9251   48.8375 H       1  ZINC000543625960    0.0900
     53 H53         0.2184    4.7817   48.8918 H       1  ZINC000543625960    0.1300
     54 H54        -0.4185    6.2721   47.0063 H       1  ZINC000543625960    0.1400
     55 H55        -0.3784    5.3892   44.7080 H       1  ZINC000543625960    0.1600
     56 H56         0.8847    1.6691   46.0462 H       1  ZINC000543625960    0.1400
     57 H57        -4.0415    3.8625   51.1634 H       1  ZINC000543625960    0.1400
@<TRIPOS>BOND
     1     1     2    1
     2     1    33    1
     3     1    34    1
     4     1    35    1
     5     2     3    1
     6     2    36    1
     7     2    37    1
     8     3     4    1
     9     3     5    1
    10     3     6    1
    11     5    38    1
    12     5    39    1
    13     5    40    1
    14     6     7   am
    15     6    41    1
    16     7     8    2
    17     7     9    2
    18     7    10    1
    19    10    32   ar
    20    10    11   ar
    21    11    12   ar
    22    11    42    1
    23    12    13   ar
    24    12    43    1
    25    13    14   ar
    26    13    44    1
    27    14    15    1
    28    14    32   ar
    29    15    16   am
    30    15    45    1
    31    16    17    2
    32    16    18   am
    33    18    24    1
    34    18    19    1
    35    19    20    1
    36    19    46    1
    37    19    47    1
    38    20    21    1
    39    20    22    1
    40    20    23    1
    41    22    48    1
    42    22    49    1
    43    22    50    1
    44    23    24    1
    45    23    51    1
    46    23    52    1
    47    24    25    1
    48    24    26    1
    49    26    31   ar
    50    26    27   ar
    51    27    28   ar
    52    27    53    1
    53    28    29   ar
    54    28    54    1
    55    29    30   ar
    56    29    55    1
    57    30    31   ar
    58    31    56    1
    59    32    57    1
@<TRIPOS>SUBSTRUCTURE
     1 ZINC000543625960        1 TEMP              0 ****  ****    0 ROOT


##########                                Name:    ZINC000076573199
##########                DOCK_Rotatable_Bonds:                  10
##########                         Heavy_Atoms:                  24
##########                    Molecular_Weight:             333.431
##########                DOCK_Rotatable_Bonds:                  10
##########                       Formal_Charge:          -0.0200009
##########                     HBond_Acceptors:                   6
##########                        HBond_Donors:                   3
##########                         Heavy_Atoms:                  24
##########                          Grid_Score:          -30.843250
##########                     Grid_vdw_energy:          -29.951159
##########                      Grid_es_energy:           -0.892091
##########           Internal_energy_repulsive:           17.363266

@<TRIPOS>MOLECULE
ZINC000076573199
 51 51 1 0 0
SMALL
USER_CHARGES


@<TRIPOS>ATOM
      1 C1         -4.3196    4.0974   54.8741 C.3     1  ZINC000076573199   -0.1500
      2 C2         -5.6135    3.2907   55.0013 C.3     1  ZINC000076573199   -0.1200
      3 C3         -6.7090    3.9477   54.1592 C.3     1  ZINC000076573199   -0.1000
      4 H4         -6.2779    4.3230   53.2311 H       1  ZINC000076573199    0.0700
      5 C5         -7.3259    5.1090   54.9412 C.3     1  ZINC000076573199   -0.1500
      6 C6         -7.7926    2.9165   53.8379 C.3     1  ZINC000076573199   -0.1200
      7 C7         -7.7092    2.5330   52.3591 C.3     1  ZINC000076573199    0.1400
      8 H8         -8.2580    1.6062   52.1925 H       1  ZINC000076573199    0.1000
      9 C9         -8.3206    3.6478   51.5079 C.3     1  ZINC000076573199   -0.1700
     10 N10        -6.3062    2.3443   51.9819 N.am    1  ZINC000076573199   -0.6900
     11 C11        -5.9698    1.3869   51.0949 C.2     1  ZINC000076573199    0.5100
     12 O12        -6.8289    0.6802   50.6098 O.2     1  ZINC000076573199   -0.5100
     13 C13        -4.5397    1.1957   50.7090 C.2     1  ZINC000076573199    0.5100
     14 O14        -4.1490    0.1044   50.3489 O.2     1  ZINC000076573199   -0.5000
     15 N15        -3.6830    2.2349   50.7608 N.am    1  ZINC000076573199   -0.6400
     16 C16        -2.3451    2.0560   50.3998 C.ar    1  ZINC000076573199    0.1500
     17 C17        -1.3371    2.2886   51.3276 C.ar    1  ZINC000076573199   -0.1300
     18 C18        -0.0140    2.1114   50.9712 C.ar    1  ZINC000076573199   -0.0800
     19 C19         0.3113    1.7026   49.6923 C.ar    1  ZINC000076573199   -0.1200
     20 C20         1.7558    1.5102   49.3083 C.3     1  ZINC000076573199   -0.1100
     21 C21        -0.6919    1.4683   48.7598 C.ar    1  ZINC000076573199    0.1600
     22 N22        -0.3612    1.0543   47.4647 N.am    1  ZINC000076573199   -0.6700
     23 C23        -0.3277    1.9505   46.4587 C.2     1  ZINC000076573199    0.5100
     24 C24         0.0284    1.5047   45.0639 C.3     1  ZINC000076573199   -0.1700
     25 O25        -0.5843    3.1158   46.6758 O.2     1  ZINC000076573199   -0.5200
     26 C26        -2.0215    1.6400   49.1155 C.ar    1  ZINC000076573199   -0.1400
     27 H27        -4.4893    5.1143   55.2280 H       1  ZINC000076573199    0.0600
     28 H28        -3.5392    3.6293   55.4739 H       1  ZINC000076573199    0.0500
     29 H29        -4.0088    4.1233   53.8297 H       1  ZINC000076573199    0.0500
     30 H30        -5.4438    2.2738   54.6474 H       1  ZINC000076573199    0.0600
     31 H31        -5.9243    3.2649   56.0457 H       1  ZINC000076573199    0.0600
     32 H32        -7.8291    4.7233   55.8279 H       1  ZINC000076573199    0.0600
     33 H33        -6.5405    5.8024   55.2420 H       1  ZINC000076573199    0.0600
     34 H34        -8.0476    5.6286   54.3111 H       1  ZINC000076573199    0.0500
     35 H35        -7.6430    2.0287   54.4523 H       1  ZINC000076573199    0.0800
     36 H36        -8.7736    3.3428   54.0480 H       1  ZINC000076573199    0.0700
     37 H37        -8.2612    3.3746   50.4543 H       1  ZINC000076573199    0.0600
     38 H38        -9.3645    3.7882   51.7885 H       1  ZINC000076573199    0.0700
     39 H39        -7.7718    4.5747   51.6744 H       1  ZINC000076573199    0.0600
     40 H40        -5.6194    2.9084   52.3705 H       1  ZINC000076573199    0.4100
     41 H41        -3.9953    3.1070   51.0486 H       1  ZINC000076573199    0.4200
     42 H42        -1.5882    2.6086   52.3281 H       1  ZINC000076573199    0.1400
     43 H43         0.7676    2.2932   51.6939 H       1  ZINC000076573199    0.1300
     44 H44         2.0532    0.4825   49.5165 H       1  ZINC000076573199    0.0700
     45 H45         1.8796    1.7160   48.2452 H       1  ZINC000076573199    0.0600
     46 H46         2.3792    2.1930   49.8856 H       1  ZINC000076573199    0.0700
     47 H47        -0.1560    0.1222   47.2910 H       1  ZINC000076573199    0.4100
     48 H48        -0.6898    0.7571   44.7269 H       1  ZINC000076573199    0.0900
     49 H49         0.0034    2.3618   44.3909 H       1  ZINC000076573199    0.1000
     50 H50         1.0291    1.0725   45.0650 H       1  ZINC000076573199    0.0900
     51 H51        -2.8030    1.4585   48.3924 H       1  ZINC000076573199    0.1400
@<TRIPOS>BOND
     1     1     2    1
     2     1    27    1
     3     1    28    1
     4     1    29    1
     5     2     3    1
     6     2    30    1
     7     2    31    1
     8     3     4    1
     9     3     5    1
    10     3     6    1
    11     5    32    1
    12     5    33    1
    13     5    34    1
    14     6     7    1
    15     6    35    1
    16     6    36    1
    17     7     8    1
    18     7     9    1
    19     7    10    1
    20     9    37    1
    21     9    38    1
    22     9    39    1
    23    10    11   am
    24    10    40    1
    25    11    12    2
    26    11    13    1
    27    13    14    2
    28    13    15   am
    29    15    16    1
    30    15    41    1
    31    16    26   ar
    32    16    17   ar
    33    17    18   ar
    34    17    42    1
    35    18    19   ar
    36    18    43    1
    37    19    20    1
    38    19    21   ar
    39    20    44    1
    40    20    45    1
    41    20    46    1
    42    21    22    1
    43    21    26   ar
    44    22    23   am
    45    22    47    1
    46    23    24    1
    47    23    25    2
    48    24    48    1
    49    24    49    1
    50    24    50    1
    51    26    51    1
@<TRIPOS>SUBSTRUCTURE
     1 ZINC000076573199        1 TEMP              0 ****  ****    0 ROOT


##########                                Name:    ZINC001058079801
##########                DOCK_Rotatable_Bonds:                   7
##########                         Heavy_Atoms:                  24
##########                    Molecular_Weight:             349.457
##########                DOCK_Rotatable_Bonds:                   7
##########                       Formal_Charge:           0.0200001
##########                     HBond_Acceptors:                   8
##########                        HBond_Donors:                   0
##########                         Heavy_Atoms:                  24
##########                          Grid_Score:          -30.839245
##########                     Grid_vdw_energy:          -30.628418
##########                      Grid_es_energy:           -0.210827
##########           Internal_energy_repulsive:           18.481770

@<TRIPOS>MOLECULE
ZINC001058079801
 47 49 1 0 0
SMALL
USER_CHARGES


@<TRIPOS>ATOM
      1 C1         -5.9005    2.8306   51.1752 C.3     1  ZINC001058079801   -0.1500
      2 C2         -5.7805    1.5918   50.2852 C.3     1  ZINC001058079801   -0.1200
      3 C3         -4.6832    0.6760   50.8313 C.3     1  ZINC001058079801   -0.0300
      4 C4         -3.3442    1.3507   50.6794 C.2     1  ZINC001058079801    0.2900
      5 N5         -2.8301    2.0488   51.6499 N.2     1  ZINC001058079801   -0.4800
      6 S6         -1.3404    2.6226   51.0671 S.3     1  ZINC001058079801    0.1900
      7 C7         -1.4999    1.8754   49.5228 C.2     1  ZINC001058079801    0.2700
      8 N8         -0.6049    1.9199   48.4692 N.3     1  ZINC001058079801   -0.4300
      9 C9         -1.2793    2.3000   47.2214 C.3     1  ZINC001058079801    0.0700
     10 C10        -0.2399    2.4807   46.1128 C.3     1  ZINC001058079801   -0.1300
     11 C11         0.5278    1.1697   45.9211 C.3     1  ZINC001058079801    0.1300
     12 N12         1.5635    1.3535   44.9014 N.am    1  ZINC001058079801   -0.6100
     13 C13         2.7640    2.1345   45.2092 C.3     1  ZINC001058079801    0.0700
     14 C14         1.4117    0.8040   43.6800 C.2     1  ZINC001058079801    0.5200
     15 O15         0.4185    0.1561   43.4257 O.2     1  ZINC001058079801   -0.5300
     16 C16         2.4763    0.9946   42.6306 C.3     1  ZINC001058079801   -0.0600
     17 C17         2.2196    2.2768   41.8816 C.2     1  ZINC001058079801   -0.1900
     18 C18         1.6345    3.4085   42.3415 C.2     1  ZINC001058079801   -0.0400
     19 O19         1.6273    4.2747   41.3186 O.3     1  ZINC001058079801    0.1000
     20 N20         2.1296    3.7968   40.3279 N.2     1  ZINC001058079801   -0.3600
     21 C21         2.5393    2.5791   40.5380 C.2     1  ZINC001058079801    0.0000
     22 C22         1.1806    0.7711   47.2475 C.3     1  ZINC001058079801   -0.1200
     23 C23         0.1000    0.6400   48.3232 C.3     1  ZINC001058079801    0.0400
     24 N24        -2.6565    1.2482   49.5658 N.2     1  ZINC001058079801   -0.5300
     25 H25        -6.6822    3.4831   50.7861 H       1  ZINC001058079801    0.0600
     26 H26        -6.1538    2.5254   52.1904 H       1  ZINC001058079801    0.0600
     27 H27        -4.9510    3.3658   51.1829 H       1  ZINC001058079801    0.0600
     28 H28        -6.7301    1.0566   50.2775 H       1  ZINC001058079801    0.0700
     29 H29        -5.5271    1.8970   49.2700 H       1  ZINC001058079801    0.0700
     30 H30        -4.8704    0.4734   51.8859 H       1  ZINC001058079801    0.1000
     31 H31        -4.6826   -0.2617   50.2757 H       1  ZINC001058079801    0.0900
     32 H32        -1.9827    1.5177   46.9359 H       1  ZINC001058079801    0.0600
     33 H33        -1.8180    3.2358   47.3702 H       1  ZINC001058079801    0.1000
     34 H34        -0.7422    2.7475   45.1829 H       1  ZINC001058079801    0.0800
     35 H35         0.4556    3.2722   46.3915 H       1  ZINC001058079801    0.0800
     36 H36        -0.1613    0.3872   45.6035 H       1  ZINC001058079801    0.1000
     37 H37         3.5335    1.4751   45.6108 H       1  ZINC001058079801    0.0600
     38 H38         3.1314    2.6098   44.2996 H       1  ZINC001058079801    0.0800
     39 H39         2.5206    2.8998   45.9462 H       1  ZINC001058079801    0.0800
     40 H40         3.4542    1.0432   43.1097 H       1  ZINC001058079801    0.1100
     41 H41         2.4543    0.1563   41.9342 H       1  ZINC001058079801    0.1100
     42 H42         1.2497    3.5792   43.3360 H       1  ZINC001058079801    0.2200
     43 H43         3.0215    1.9267   39.8251 H       1  ZINC001058079801    0.1900
     44 H44         1.6932   -0.1835   47.1284 H       1  ZINC001058079801    0.0900
     45 H45         1.8985    1.5357   47.5441 H       1  ZINC001058079801    0.0800
     46 H46         0.5633    0.3701   49.2723 H       1  ZINC001058079801    0.1000
     47 H47        -0.6097   -0.1345   48.0325 H       1  ZINC001058079801    0.0700
@<TRIPOS>BOND
     1     1     2    1
     2     1    25    1
     3     1    26    1
     4     1    27    1
     5     2     3    1
     6     2    28    1
     7     2    29    1
     8     3     4    1
     9     3    30    1
    10     3    31    1
    11     4    24    1
    12     4     5    2
    13     5     6    1
    14     6     7    1
    15     7     8    1
    16     7    24    2
    17     8    23    1
    18     8     9    1
    19     9    10    1
    20     9    32    1
    21     9    33    1
    22    10    11    1
    23    10    34    1
    24    10    35    1
    25    11    12    1
    26    11    22    1
    27    11    36    1
    28    12    13    1
    29    12    14   am
    30    13    37    1
    31    13    38    1
    32    13    39    1
    33    14    15    2
    34    14    16    1
    35    16    17    1
    36    16    40    1
    37    16    41    1
    38    17    21    1
    39    17    18    2
    40    18    19    1
    41    18    42    1
    42    19    20    1
    43    20    21    2
    44    21    43    1
    45    22    23    1
    46    22    44    1
    47    22    45    1
    48    23    46    1
    49    23    47    1
@<TRIPOS>SUBSTRUCTURE
     1 ZINC001058079801        1 TEMP              0 ****  ****    0 ROOT


##########                                Name:    ZINC000581017854
##########                DOCK_Rotatable_Bonds:                   6
##########                         Heavy_Atoms:                  24
##########                    Molecular_Weight:             330.334
##########                DOCK_Rotatable_Bonds:                   6
##########                       Formal_Charge:           0.0099998
##########                     HBond_Acceptors:                   6
##########                        HBond_Donors:                   2
##########                         Heavy_Atoms:                  24
##########                          Grid_Score:          -30.831263
##########                     Grid_vdw_energy:          -27.876728
##########                      Grid_es_energy:           -2.954534
##########           Internal_energy_repulsive:           14.710404

@<TRIPOS>MOLECULE
ZINC000581017854
 40 42 1 0 0
SMALL
USER_CHARGES


@<TRIPOS>ATOM
      1 C1         -5.9306    0.1644   50.8338 C.3     1  ZINC000581017854   -0.1600
      2 C2         -5.5804    1.6530   50.7813 C.3     1  ZINC000581017854    0.1500
      3 H3         -5.7007    2.0187   49.7615 H       1  ZINC000581017854    0.1100
      4 C4         -6.5115    2.4292   51.7147 C.3     1  ZINC000581017854    0.0500
      5 O5         -6.1811    3.8188   51.6694 O.3     1  ZINC000581017854   -0.3100
      6 C6         -6.7574    4.5582   50.6854 C.ar    1  ZINC000581017854    0.1600
      7 C7         -7.4362    3.9298   49.6516 C.ar    1  ZINC000581017854   -0.2200
      8 C8         -8.0218    4.6826   48.6517 C.ar    1  ZINC000581017854   -0.0500
      9 C9         -7.9318    6.0614   48.6797 C.ar    1  ZINC000581017854   -0.1900
     10 C10        -7.2544    6.6922   49.7102 C.ar    1  ZINC000581017854    0.1400
     11 F11        -7.1675    8.0402   49.7359 F       1  ZINC000581017854   -0.1300
     12 C12        -6.6725    5.9423   50.7167 C.ar    1  ZINC000581017854   -0.1900
     13 N13        -4.1918    1.8433   51.2077 N.am    1  ZINC000581017854   -0.7300
     14 C14        -3.1902    1.7259   50.3137 C.2     1  ZINC000581017854    0.5900
     15 O15        -3.4390    1.4606   49.1526 O.2     1  ZINC000581017854   -0.5400
     16 C16        -1.7978    1.9185   50.7409 C.2     1  ZINC000581017854   -0.2200
     17 C17        -1.3729    2.4508   51.9221 C.2     1  ZINC000581017854    0.1100
     18 N18        -0.0182    2.4660   51.9569 N.pl3   1  ZINC000581017854   -0.5700
     19 C19         0.4995    1.9404   50.7911 C.ar    1  ZINC000581017854    0.1100
     20 C20         1.7967    1.7342   50.3341 C.ar    1  ZINC000581017854   -0.1600
     21 C21         2.0074    1.1741   49.0906 C.ar    1  ZINC000581017854    0.1200
     22 F22         3.2692    0.9752   48.6508 F       1  ZINC000581017854   -0.1400
     23 C23         0.9333    0.8123   48.2873 C.ar    1  ZINC000581017854   -0.1700
     24 C24        -0.3583    1.0095   48.7244 C.ar    1  ZINC000581017854   -0.0300
     25 C25        -0.5843    1.5683   49.9794 C.ar    1  ZINC000581017854   -0.0700
     26 H26        -6.9637    0.0229   50.5165 H       1  ZINC000581017854    0.0700
     27 H27        -5.2672   -0.3885   50.1688 H       1  ZINC000581017854    0.0700
     28 H28        -5.8103   -0.2013   51.8535 H       1  ZINC000581017854    0.0700
     29 H29        -7.5444    2.2907   51.3950 H       1  ZINC000581017854    0.0700
     30 H30        -6.3940    2.0608   52.7338 H       1  ZINC000581017854    0.0800
     31 H31        -7.5068    2.8524   49.6280 H       1  ZINC000581017854    0.1400
     32 H32        -8.5501    4.1928   47.8470 H       1  ZINC000581017854    0.1400
     33 H33        -8.3899    6.6478   47.8970 H       1  ZINC000581017854    0.1400
     34 H34        -6.1445    6.4336   51.5206 H       1  ZINC000581017854    0.1400
     35 H35        -3.9933    2.0536   52.1336 H       1  ZINC000581017854    0.4000
     36 H36        -2.0186    2.8067   52.7111 H       1  ZINC000581017854    0.1800
     37 H37         0.5127    2.8000   52.6970 H       1  ZINC000581017854    0.4200
     38 H38         2.6381    2.0125   50.9513 H       1  ZINC000581017854    0.1400
     39 H39         1.1115    0.3752   47.3159 H       1  ZINC000581017854    0.1400
     40 H40        -1.1918    0.7278   48.0979 H       1  ZINC000581017854    0.1500
@<TRIPOS>BOND
     1     1     2    1
     2     1    26    1
     3     1    27    1
     4     1    28    1
     5     2     3    1
     6     2     4    1
     7     2    13    1
     8     4     5    1
     9     4    29    1
    10     4    30    1
    11     5     6    1
    12     6    12   ar
    13     6     7   ar
    14     7     8   ar
    15     7    31    1
    16     8     9   ar
    17     8    32    1
    18     9    10   ar
    19     9    33    1
    20    10    11    1
    21    10    12   ar
    22    12    34    1
    23    13    14   am
    24    13    35    1
    25    14    15    2
    26    14    16    1
    27    16    25    1
    28    16    17    2
    29    17    18    1
    30    17    36    1
    31    18    19    1
    32    18    37    1
    33    19    25   ar
    34    19    20   ar
    35    20    21   ar
    36    20    38    1
    37    21    22    1
    38    21    23   ar
    39    23    24   ar
    40    23    39    1
    41    24    25   ar
    42    24    40    1
@<TRIPOS>SUBSTRUCTURE
     1 ZINC000581017854        1 TEMP              0 ****  ****    0 ROOT


##########                                Name:    ZINC000517001504
##########                DOCK_Rotatable_Bonds:                   5
##########                         Heavy_Atoms:                  29
##########                    Molecular_Weight:             403.401
##########                DOCK_Rotatable_Bonds:                   5
##########                       Formal_Charge:          -0.0200002
##########                     HBond_Acceptors:                   7
##########                        HBond_Donors:                   0
##########                         Heavy_Atoms:                  29
##########                          Grid_Score:          -30.816355
##########                     Grid_vdw_energy:          -29.495317
##########                      Grid_es_energy:           -1.321037
##########           Internal_energy_repulsive:           32.521740

@<TRIPOS>MOLECULE
ZINC000517001504
 49 52 1 0 0
SMALL
USER_CHARGES


@<TRIPOS>ATOM
      1 O1         -8.2037    1.3457   52.1263 O.2     1  ZINC000517001504   -0.5200
      2 C2         -7.2169    1.9802   51.8186 C.2     1  ZINC000517001504    0.5400
      3 N3         -6.3060    1.4456   50.9812 N.am    1  ZINC000517001504   -0.6100
      4 C4         -6.4842    0.0919   50.4324 C.3     1  ZINC000517001504    0.0600
      5 C5         -5.1916   -0.6983   50.6658 C.3     1  ZINC000517001504    0.0500
      6 O6         -4.0839    0.0510   50.1604 O.3     1  ZINC000517001504   -0.3700
      7 C7         -3.8790    1.3057   50.8143 C.3     1  ZINC000517001504    0.1200
      8 H8         -3.7405    1.1410   51.8829 H       1  ZINC000517001504    0.0800
      9 C9         -2.6549    1.9757   50.2454 C.ar    1  ZINC000517001504   -0.0600
     10 C10        -2.4819    2.0516   48.8760 C.ar    1  ZINC000517001504   -0.0900
     11 C11        -1.3590    2.6662   48.3543 C.ar    1  ZINC000517001504   -0.0700
     12 C12        -0.4094    3.2053   49.2018 C.ar    1  ZINC000517001504   -0.1800
     13 C13         0.8151    3.8749   48.6330 C.3     1  ZINC000517001504    0.5100
     14 F14         0.4283    4.9753   47.8605 F       1  ZINC000517001504   -0.1800
     15 F15         1.6392    4.3054   49.6782 F       1  ZINC000517001504   -0.1800
     16 F16         1.5141    2.9656   47.8320 F       1  ZINC000517001504   -0.1800
     17 C17        -0.5830    3.1306   50.5712 C.ar    1  ZINC000517001504   -0.0700
     18 C18        -1.7078    2.5194   51.0929 C.ar    1  ZINC000517001504   -0.1000
     19 C19        -5.1072    2.2008   50.5841 C.3     1  ZINC000517001504    0.0900
     20 C20        -7.0123    3.3685   52.3677 C.3     1  ZINC000517001504   -0.0600
     21 C21        -7.0179    4.4289   51.2969 C.ar    1  ZINC000517001504   -0.0700
     22 C22        -6.5809    5.7076   51.5882 C.ar    1  ZINC000517001504   -0.1200
     23 C23        -6.5860    6.6803   50.6059 C.ar    1  ZINC000517001504   -0.1100
     24 C24        -7.0276    6.3742   49.3323 C.ar    1  ZINC000517001504   -0.1100
     25 C25        -7.4637    5.0952   49.0409 C.ar    1  ZINC000517001504   -0.1100
     26 C26        -7.4546    4.1215   50.0219 C.ar    1  ZINC000517001504   -0.1000
     27 C27        -7.9155    3.6966   53.5690 C.3     1  ZINC000517001504   -0.1600
     28 C28        -6.8083    3.1422   54.4432 C.2     1  ZINC000517001504    0.3600
     29 O29        -6.7394    2.6464   55.5421 O.2     1  ZINC000517001504   -0.4100
     30 C30        -5.8251    3.4792   53.3398 C.3     1  ZINC000517001504   -0.1900
     31 H31        -7.3135   -0.4029   50.9379 H       1  ZINC000517001504    0.1000
     32 H32        -6.6891    0.1532   49.3636 H       1  ZINC000517001504    0.0800
     33 H33        -5.0579   -0.8703   51.7338 H       1  ZINC000517001504    0.0600
     34 H34        -5.2511   -1.6550   50.1470 H       1  ZINC000517001504    0.1100
     35 H35        -3.2238    1.6304   48.2139 H       1  ZINC000517001504    0.1400
     36 H36        -1.2235    2.7248   47.2844 H       1  ZINC000517001504    0.1400
     37 H37         0.1588    3.5522   51.2333 H       1  ZINC000517001504    0.1400
     38 H38        -1.8434    2.4612   52.1628 H       1  ZINC000517001504    0.1400
     39 H39        -5.1705    2.4732   49.5306 H       1  ZINC000517001504    0.0800
     40 H40        -5.0242    3.1014   51.1923 H       1  ZINC000517001504    0.1100
     41 H41        -6.2359    5.9468   52.5832 H       1  ZINC000517001504    0.1300
     42 H42        -6.2453    7.6796   50.8337 H       1  ZINC000517001504    0.1300
     43 H43        -7.0323    7.1342   48.5652 H       1  ZINC000517001504    0.1300
     44 H44        -7.8091    4.8560   48.0459 H       1  ZINC000517001504    0.1300
     45 H45        -7.7953    3.1222   49.7942 H       1  ZINC000517001504    0.1200
     46 H46        -8.0893    4.7638   53.7073 H       1  ZINC000517001504    0.1300
     47 H47        -8.8331    3.1091   53.5998 H       1  ZINC000517001504    0.1100
     48 H48        -5.0613    2.7167   53.1864 H       1  ZINC000517001504    0.1000
     49 H49        -5.4124    4.4853   53.4138 H       1  ZINC000517001504    0.1400
@<TRIPOS>BOND
     1     1     2    2
     2     2     3   am
     3     2    20    1
     4     3    19    1
     5     3     4    1
     6     4     5    1
     7     4    31    1
     8     4    32    1
     9     5     6    1
    10     5    33    1
    11     5    34    1
    12     6     7    1
    13     7     8    1
    14     7     9    1
    15     7    19    1
    16     9    18   ar
    17     9    10   ar
    18    10    11   ar
    19    10    35    1
    20    11    12   ar
    21    11    36    1
    22    12    13    1
    23    12    17   ar
    24    13    14    1
    25    13    15    1
    26    13    16    1
    27    17    18   ar
    28    17    37    1
    29    18    38    1
    30    19    39    1
    31    19    40    1
    32    20    30    1
    33    20    21    1
    34    20    27    1
    35    21    26   ar
    36    21    22   ar
    37    22    23   ar
    38    22    41    1
    39    23    24   ar
    40    23    42    1
    41    24    25   ar
    42    24    43    1
    43    25    26   ar
    44    25    44    1
    45    26    45    1
    46    27    28    1
    47    27    46    1
    48    27    47    1
    49    28    29    2
    50    28    30    1
    51    30    48    1
    52    30    49    1
@<TRIPOS>SUBSTRUCTURE
     1 ZINC000517001504        1 TEMP              0 ****  ****    0 ROOT


##########                                Name:    ZINC000549381790
##########                DOCK_Rotatable_Bonds:                   7
##########                         Heavy_Atoms:                  23
##########                    Molecular_Weight:             337.846
##########                DOCK_Rotatable_Bonds:                   7
##########                       Formal_Charge:           0.0300006
##########                     HBond_Acceptors:                   5
##########                        HBond_Donors:                   0
##########                         Heavy_Atoms:                  23
##########                          Grid_Score:          -30.806757
##########                     Grid_vdw_energy:          -31.174938
##########                      Grid_es_energy:            0.368182
##########           Internal_energy_repulsive:           85.117729

@<TRIPOS>MOLECULE
ZINC000549381790
 47 49 1 0 0
SMALL
USER_CHARGES


@<TRIPOS>ATOM
      1 C1          1.8908    1.4706   50.0915 C.3     1  ZINC000549381790   -0.1400
      2 C2          1.4230    1.8929   48.6974 C.3     1  ZINC000549381790    0.1500
      3 H3          1.7907    2.8950   48.4766 H       1  ZINC000549381790    0.0700
      4 C4          1.9604    0.9075   47.6549 C.3     1  ZINC000549381790   -0.1300
      5 C5          1.3767    1.2535   46.2831 C.3     1  ZINC000549381790   -0.1200
      6 C6         -0.1476    1.1253   46.3283 C.3     1  ZINC000549381790   -0.1400
      7 C7         -0.7089    2.1132   47.3558 C.3     1  ZINC000549381790    0.1000
      8 N8         -0.0453    1.8850   48.6471 N.am    1  ZINC000549381790   -0.6100
      9 C9         -0.7699    1.6675   49.7625 C.2     1  ZINC000549381790    0.5200
     10 O10        -0.2104    1.4803   50.8222 O.2     1  ZINC000549381790   -0.5000
     11 C11        -2.2753    1.6568   49.6929 C.3     1  ZINC000549381790    0.0400
     12 O12        -2.8070    1.2264   50.9477 O.3     1  ZINC000549381790   -0.2800
     13 C13        -4.1510    1.3408   51.1204 C.ar    1  ZINC000549381790    0.1100
     14 C14        -5.0049    0.4080   50.5514 C.ar    1  ZINC000549381790   -0.1700
     15 C15        -6.3706    0.5234   50.7270 C.ar    1  ZINC000549381790   -0.1600
     16 C16        -6.8879    1.5722   51.4718 C.ar    1  ZINC000549381790    0.1100
     17 O17        -8.2322    1.6857   51.6445 O.3     1  ZINC000549381790   -0.3000
     18 C18        -8.8548    0.7470   52.5238 C.3     1  ZINC000549381790    0.0900
     19 C19       -10.3665    0.7525   52.2881 C.3     1  ZINC000549381790   -0.1600
     20 C20       -11.2651    1.1065   53.4747 C.3     1  ZINC000549381790   -0.1700
     21 C21       -11.0829    2.1038   52.3289 C.3     1  ZINC000549381790   -0.1700
     22 C22        -6.0334    2.5062   52.0416 C.ar    1  ZINC000549381790   -0.0300
     23 Cl23       -6.6805    3.8194   52.9747 Cl      1  ZINC000549381790   -0.0400
     24 C24        -4.6672    2.3872   51.8706 C.ar    1  ZINC000549381790   -0.1000
     25 H25         1.4404    0.5125   50.3511 H       1  ZINC000549381790    0.0600
     26 H26         2.9765    1.3750   50.0970 H       1  ZINC000549381790    0.0500
     27 H27         1.5887    2.2233   50.8197 H       1  ZINC000549381790    0.0800
     28 H28         3.0475    0.9764   47.6157 H       1  ZINC000549381790    0.0800
     29 H29         1.6693   -0.1066   47.9288 H       1  ZINC000549381790    0.0700
     30 H30         1.6476    2.2763   46.0208 H       1  ZINC000549381790    0.0700
     31 H31         1.7768    0.5691   45.5351 H       1  ZINC000549381790    0.0700
     32 H32        -0.5609    1.3492   45.3449 H       1  ZINC000549381790    0.0800
     33 H33        -0.4188    0.1092   46.6148 H       1  ZINC000549381790    0.0700
     34 H34        -0.5171    3.1336   47.0242 H       1  ZINC000549381790    0.0800
     35 H35        -1.7823    1.9576   47.4639 H       1  ZINC000549381790    0.0800
     36 H36        -2.6359    2.6612   49.4709 H       1  ZINC000549381790    0.0900
     37 H37        -2.5979    0.9731   48.9078 H       1  ZINC000549381790    0.0900
     38 H38        -4.6025   -0.4088   49.9706 H       1  ZINC000549381790    0.1400
     39 H39        -7.0354   -0.2032   50.2837 H       1  ZINC000549381790    0.1400
     40 H40        -8.4603   -0.2503   52.3291 H       1  ZINC000549381790    0.0700
     41 H41        -8.6473    1.0244   53.5574 H       1  ZINC000549381790    0.0700
     42 H42       -10.7348    0.0087   51.5816 H       1  ZINC000549381790    0.1200
     43 H43       -12.2250    0.5954   53.5491 H       1  ZINC000549381790    0.1000
     44 H44       -10.7794    1.3353   54.4233 H       1  ZINC000549381790    0.1000
     45 H45       -10.4772    2.9889   52.5236 H       1  ZINC000549381790    0.1000
     46 H46       -11.9228    2.2489   51.6495 H       1  ZINC000549381790    0.1000
     47 H47        -4.0021    3.1136   52.3137 H       1  ZINC000549381790    0.1500
@<TRIPOS>BOND
     1     1     2    1
     2     1    25    1
     3     1    26    1
     4     1    27    1
     5     2     3    1
     6     2     8    1
     7     2     4    1
     8     4     5    1
     9     4    28    1
    10     4    29    1
    11     5     6    1
    12     5    30    1
    13     5    31    1
    14     6     7    1
    15     6    32    1
    16     6    33    1
    17     7     8    1
    18     7    34    1
    19     7    35    1
    20     8     9   am
    21     9    10    2
    22     9    11    1
    23    11    12    1
    24    11    36    1
    25    11    37    1
    26    12    13    1
    27    13    24   ar
    28    13    14   ar
    29    14    15   ar
    30    14    38    1
    31    15    16   ar
    32    15    39    1
    33    16    17    1
    34    16    22   ar
    35    17    18    1
    36    18    19    1
    37    18    40    1
    38    18    41    1
    39    19    21    1
    40    19    20    1
    41    19    42    1
    42    20    21    1
    43    20    43    1
    44    20    44    1
    45    21    45    1
    46    21    46    1
    47    22    23    1
    48    22    24   ar
    49    24    47    1
@<TRIPOS>SUBSTRUCTURE
     1 ZINC000549381790        1 TEMP              0 ****  ****    0 ROOT


##########                                Name:    ZINC000188380122
##########                DOCK_Rotatable_Bonds:                   6
##########                         Heavy_Atoms:                  27
##########                    Molecular_Weight:             396.433
##########                DOCK_Rotatable_Bonds:                   6
##########                       Formal_Charge:           0.0299998
##########                     HBond_Acceptors:                   8
##########                        HBond_Donors:                   1
##########                         Heavy_Atoms:                  27
##########                          Grid_Score:          -30.800339
##########                     Grid_vdw_energy:          -30.493713
##########                      Grid_es_energy:           -0.306626
##########           Internal_energy_repulsive:            9.693942

@<TRIPOS>MOLECULE
ZINC000188380122
 46 49 1 0 0
SMALL
USER_CHARGES


@<TRIPOS>ATOM
      1 O1         -0.1840    0.8945   49.2098 O.2     1  ZINC000188380122   -0.5200
      2 C2          0.0042    2.0596   48.9303 C.2     1  ZINC000188380122    0.5200
      3 C3          0.6947    2.9685   49.9142 C.3     1  ZINC000188380122   -0.0700
      4 C4         -0.2373    3.2698   51.0595 C.2     1  ZINC000188380122    0.0900
      5 C5          0.1912    3.8307   52.1952 C.2     1  ZINC000188380122   -0.2400
      6 S6         -1.1905    4.0168   53.2735 S.3     1  ZINC000188380122    0.1000
      7 C7         -2.2357    3.2995   52.0499 C.2     1  ZINC000188380122    0.1100
      8 C8         -3.6907    3.0758   52.1884 C.ar    1  ZINC000188380122   -0.0200
      9 C9         -4.4573    3.9257   52.9864 C.ar    1  ZINC000188380122   -0.0400
     10 C10        -5.8148    3.7118   53.1111 C.ar    1  ZINC000188380122   -0.1200
     11 C11        -6.4158    2.6573   52.4474 C.ar    1  ZINC000188380122   -0.0600
     12 C12        -5.6610    1.8108   51.6545 C.ar    1  ZINC000188380122   -0.1800
     13 C13        -6.3241    0.6648   50.9346 C.3     1  ZINC000188380122    0.5100
     14 F14        -5.4383   -0.4156   50.8622 F       1  ZINC000188380122   -0.1700
     15 F15        -7.4741    0.2791   51.6318 F       1  ZINC000188380122   -0.1700
     16 F16        -6.6756    1.0673   49.6417 F       1  ZINC000188380122   -0.1700
     17 C17        -4.3040    2.0171   51.5169 C.ar    1  ZINC000188380122   -0.0500
     18 N18        -1.5217    3.0030   51.0019 N.2     1  ZINC000188380122   -0.4300
     19 N19        -0.3993    2.5402   47.7375 N.am    1  ZINC000188380122   -0.7200
     20 C20        -1.0706    1.6566   46.7811 C.3     1  ZINC000188380122    0.1300
     21 H21        -2.0579    1.3400   47.1173 H       1  ZINC000188380122    0.1200
     22 C22        -0.1868    0.4985   46.2850 C.3     1  ZINC000188380122   -0.1800
     23 C23        -0.8165    0.7323   44.9068 C.3     1  ZINC000188380122    0.0900
     24 H24        -1.7548    0.1890   44.7946 H       1  ZINC000188380122    0.1200
     25 O25         0.0354    0.5197   43.8094 O.3     1  ZINC000188380122   -0.3700
     26 C26         1.1249    1.3970   43.5924 C.3     1  ZINC000188380122    0.0700
     27 C27         0.6783    2.8550   43.6891 C.3     1  ZINC000188380122   -0.1600
     28 C28         0.1327    3.1070   45.0981 C.3     1  ZINC000188380122   -0.1100
     29 C29        -1.0505    2.1844   45.3321 C.3     1  ZINC000188380122   -0.1500
     30 H30        -1.9985    2.6037   44.9948 H       1  ZINC000188380122    0.0900
     31 H31         1.5910    2.4782   50.2946 H       1  ZINC000188380122    0.1100
     32 H32         0.9722    3.8981   49.4174 H       1  ZINC000188380122    0.1100
     33 H33         1.2085    4.1195   52.4141 H       1  ZINC000188380122    0.1800
     34 H34        -3.9892    4.7489   53.5057 H       1  ZINC000188380122    0.1500
     35 H35        -6.4094    4.3689   53.7283 H       1  ZINC000188380122    0.1400
     36 H36        -7.4784    2.4937   52.5488 H       1  ZINC000188380122    0.1500
     37 H37        -3.7161    1.3558   50.8977 H       1  ZINC000188380122    0.1400
     38 H38        -0.2453    3.4711   47.5125 H       1  ZINC000188380122    0.4000
     39 H39         0.8809    0.7153   46.3215 H       1  ZINC000188380122    0.0900
     40 H40        -0.4406   -0.4660   46.7249 H       1  ZINC000188380122    0.0800
     41 H41         1.8928    1.2071   44.3423 H       1  ZINC000188380122    0.0500
     42 H42         1.5401    1.2144   42.6013 H       1  ZINC000188380122    0.1000
     43 H43         1.5286    3.5112   43.5032 H       1  ZINC000188380122    0.0800
     44 H44        -0.1033    3.0479   42.9542 H       1  ZINC000188380122    0.0800
     45 H45         0.9099    2.8989   45.8334 H       1  ZINC000188380122    0.0700
     46 H46        -0.1875    4.1451   45.1858 H       1  ZINC000188380122    0.0800
@<TRIPOS>BOND
     1     1     2    2
     2     2     3    1
     3     2    19   am
     4     3     4    1
     5     3    31    1
     6     3    32    1
     7     4    18    1
     8     4     5    2
     9     5     6    1
    10     5    33    1
    11     6     7    1
    12     7     8    1
    13     7    18    2
    14     8    17   ar
    15     8     9   ar
    16     9    10   ar
    17     9    34    1
    18    10    11   ar
    19    10    35    1
    20    11    12   ar
    21    11    36    1
    22    12    13    1
    23    12    17   ar
    24    13    14    1
    25    13    15    1
    26    13    16    1
    27    17    37    1
    28    19    20    1
    29    19    38    1
    30    20    21    1
    31    20    29    1
    32    20    22    1
    33    22    23    1
    34    22    39    1
    35    22    40    1
    36    23    24    1
    37    23    29    1
    38    23    25    1
    39    25    26    1
    40    26    27    1
    41    26    41    1
    42    26    42    1
    43    27    28    1
    44    27    43    1
    45    27    44    1
    46    28    29    1
    47    28    45    1
    48    28    46    1
    49    29    30    1
@<TRIPOS>SUBSTRUCTURE
     1 ZINC000188380122        1 TEMP              0 ****  ****    0 ROOT


##########                                Name:    ZINC001141221454
##########                DOCK_Rotatable_Bonds:                   7
##########                         Heavy_Atoms:                  27
##########                    Molecular_Weight:             369.439
##########                DOCK_Rotatable_Bonds:                   7
##########                       Formal_Charge:          0.00999935
##########                     HBond_Acceptors:                   6
##########                        HBond_Donors:                   1
##########                         Heavy_Atoms:                  27
##########                          Grid_Score:          -30.779812
##########                     Grid_vdw_energy:          -29.781540
##########                      Grid_es_energy:           -0.998271
##########           Internal_energy_repulsive:           14.500318

@<TRIPOS>MOLECULE
ZINC001141221454
 51 54 1 0 0
SMALL
USER_CHARGES


@<TRIPOS>ATOM
      1 C1         -6.8761    0.8474   50.3568 C.3     1  ZINC001141221454    0.0300
      2 O2         -5.4757    0.6795   50.5873 O.3     1  ZINC001141221454   -0.3100
      3 C3         -4.7587    1.7988   50.8728 C.ar    1  ZINC001141221454    0.0900
      4 C4         -5.4114    2.9762   51.2031 C.ar    1  ZINC001141221454   -0.1800
      5 C5         -4.6804    4.1128   51.4935 C.ar    1  ZINC001141221454   -0.0900
      6 C6         -3.2992    4.0773   51.4549 C.ar    1  ZINC001141221454   -0.1200
      7 C7         -2.6439    2.9048   51.1253 C.ar    1  ZINC001141221454   -0.0800
      8 C8         -1.1379    2.8698   51.0837 C.3     1  ZINC001141221454    0.0900
      9 N9         -0.6943    2.4733   49.7407 N.3     1  ZINC001141221454   -0.5100
     10 C10        -0.0611    3.6146   49.0304 C.3     1  ZINC001141221454    0.0300
     11 C11         0.7905    2.9251   47.9328 C.3     1  ZINC001141221454   -0.0700
     12 C12         1.3064    1.6626   48.6475 C.3     1  ZINC001141221454   -0.1000
     13 C13         2.7980    1.3812   48.7732 C.3     1  ZINC001141221454   -0.1400
     14 C14         1.9239    0.5102   47.8662 C.3     1  ZINC001141221454   -0.1800
     15 H15         1.7017   -0.5024   48.2026 H       1  ZINC001141221454    0.1300
     16 C16         2.0785    0.6814   46.3770 C.2     1  ZINC001141221454    0.5500
     17 O17         3.1394    1.0452   45.9153 O.2     1  ZINC001141221454   -0.5300
     18 N18         1.0379    0.4303   45.5582 N.am    1  ZINC001141221454   -0.7300
     19 C19         1.1876    0.5985   44.1106 C.3     1  ZINC001141221454    0.1700
     20 C20         0.8220    2.0096   43.7283 C.ar    1  ZINC001141221454   -0.1600
     21 C21         1.5549    2.6888   42.7675 C.ar    1  ZINC001141221454   -0.0600
     22 C22         1.1817    3.9854   42.4472 C.ar    1  ZINC001141221454   -0.1700
     23 C23         0.0995    4.5534   43.0919 C.ar    1  ZINC001141221454    0.1100
     24 N24        -0.5750    3.8771   44.0015 N.ar    1  ZINC001141221454   -0.4800
     25 C25        -0.2520    2.6410   44.3272 C.ar    1  ZINC001141221454    0.1200
     26 C26         0.3413    1.4172   49.8141 C.3     1  ZINC001141221454    0.0700
     27 C27        -3.3700    1.7631   50.8395 C.ar    1  ZINC001141221454    0.0900
     28 F28        -2.7303    0.6175   50.5174 F       1  ZINC001141221454   -0.1300
     29 H29        -7.3274   -0.1209   50.1405 H       1  ZINC001141221454    0.1000
     30 H30        -7.3417    1.2750   51.2448 H       1  ZINC001141221454    0.0600
     31 H31        -7.0272    1.5162   49.5095 H       1  ZINC001141221454    0.0600
     32 H32        -6.4905    3.0056   51.2334 H       1  ZINC001141221454    0.1400
     33 H33        -5.1892    5.0301   51.7506 H       1  ZINC001141221454    0.1300
     34 H34        -2.7306    4.9669   51.6823 H       1  ZINC001141221454    0.1300
     35 H35        -0.7449    3.8588   51.3190 H       1  ZINC001141221454    0.0600
     36 H36        -0.7710    2.1496   51.8150 H       1  ZINC001141221454    0.0900
     37 H37        -0.8193    4.2565   48.5819 H       1  ZINC001141221454    0.0800
     38 H38         0.5742    4.1844   49.7085 H       1  ZINC001141221454    0.0500
     39 H39         0.1730    2.6584   47.0751 H       1  ZINC001141221454    0.0900
     40 H40         1.6202    3.5636   47.6294 H       1  ZINC001141221454    0.0700
     41 H41         3.4842    2.0785   48.2924 H       1  ZINC001141221454    0.1000
     42 H42         3.1507    0.9414   49.7061 H       1  ZINC001141221454    0.1100
     43 H43         0.1898    0.1382   45.9274 H       1  ZINC001141221454    0.4000
     44 H44         2.2214    0.4014   43.8269 H       1  ZINC001141221454    0.0800
     45 H45         0.5295   -0.1000   43.5937 H       1  ZINC001141221454    0.0800
     46 H46         2.3967    2.2194   42.2801 H       1  ZINC001141221454    0.1400
     47 H47         1.7303    4.5444   41.7035 H       1  ZINC001141221454    0.1400
     48 H48        -0.1972    5.5628   42.8485 H       1  ZINC001141221454    0.1600
     49 H49        -0.8278    2.1188   45.0769 H       1  ZINC001141221454    0.1600
     50 H50         0.8765    1.4849   50.7613 H       1  ZINC001141221454    0.0500
     51 H51        -0.1203    0.4347   49.7157 H       1  ZINC001141221454    0.0900
@<TRIPOS>BOND
     1     1     2    1
     2     1    29    1
     3     1    30    1
     4     1    31    1
     5     2     3    1
     6     3    27   ar
     7     3     4   ar
     8     4     5   ar
     9     4    32    1
    10     5     6   ar
    11     5    33    1
    12     6     7   ar
    13     6    34    1
    14     7     8    1
    15     7    27   ar
    16     8     9    1
    17     8    35    1
    18     8    36    1
    19     9    26    1
    20     9    10    1
    21    10    11    1
    22    10    37    1
    23    10    38    1
    24    11    12    1
    25    11    39    1
    26    11    40    1
    27    12    14    1
    28    12    13    1
    29    12    26    1
    30    13    14    1
    31    13    41    1
    32    13    42    1
    33    14    15    1
    34    14    16    1
    35    16    17    2
    36    16    18   am
    37    18    19    1
    38    18    43    1
    39    19    20    1
    40    19    44    1
    41    19    45    1
    42    20    25   ar
    43    20    21   ar
    44    21    22   ar
    45    21    46    1
    46    22    23   ar
    47    22    47    1
    48    23    24   ar
    49    23    48    1
    50    24    25   ar
    51    25    49    1
    52    26    50    1
    53    26    51    1
    54    27    28    1
@<TRIPOS>SUBSTRUCTURE
     1 ZINC001141221454        1 TEMP              0 ****  ****    0 ROOT


##########                                Name:    ZINC000081577146
##########                DOCK_Rotatable_Bonds:                   4
##########                         Heavy_Atoms:                  25
##########                    Molecular_Weight:             355.464
##########                DOCK_Rotatable_Bonds:                   4
##########                       Formal_Charge:                0.02
##########                     HBond_Acceptors:                   7
##########                        HBond_Donors:                   0
##########                         Heavy_Atoms:                  25
##########                          Grid_Score:          -30.751230
##########                     Grid_vdw_energy:          -31.168514
##########                      Grid_es_energy:            0.417284
##########           Internal_energy_repulsive:           14.510926

@<TRIPOS>MOLECULE
ZINC000081577146
 46 49 1 0 0
SMALL
USER_CHARGES


@<TRIPOS>ATOM
      1 C1         -8.9401    1.7988   53.2377 C.3     1  ZINC000081577146   -0.0700
      2 C2         -7.8687    1.2631   52.3231 C.2     1  ZINC000081577146    0.2900
      3 N3         -8.1447    0.3733   51.4147 N.2     1  ZINC000081577146   -0.4800
      4 S4         -6.6763    0.0524   50.6215 S.3     1  ZINC000081577146    0.1900
      5 C5         -5.7602    1.1555   51.5769 C.2     1  ZINC000081577146    0.2700
      6 N6         -4.4081    1.4305   51.4813 N.3     1  ZINC000081577146   -0.4300
      7 C7         -4.1391    2.8501   51.7500 C.3     1  ZINC000081577146    0.0700
      8 C8         -2.6290    3.0963   51.7131 C.3     1  ZINC000081577146    0.0500
      9 N9         -2.1033    2.7034   50.3983 N.3     1  ZINC000081577146   -0.5200
     10 C10        -0.6672    2.9954   50.2968 C.3     1  ZINC000081577146    0.1900
     11 H11        -0.1651    2.6712   51.2083 H       1  ZINC000081577146    0.0700
     12 C12        -0.4649    4.5006   50.1110 C.3     1  ZINC000081577146   -0.1500
     13 C13        -0.0874    2.2610   49.1155 C.2     1  ZINC000081577146    0.1900
     14 N14         0.4022    1.0531   49.1415 N.2     1  ZINC000081577146   -0.4500
     15 C15         0.8253    0.7291   47.9105 C.2     1  ZINC000081577146   -0.0200
     16 C16         0.5802    1.7914   47.1014 C.2     1  ZINC000081577146    0.0000
     17 C17         0.8814    1.8870   45.6573 C.ar    1  ZINC000081577146   -0.0200
     18 C18         0.6056    3.0643   44.9602 C.ar    1  ZINC000081577146   -0.1000
     19 C19         0.8896    3.1471   43.6127 C.ar    1  ZINC000081577146   -0.1200
     20 C20         1.4462    2.0663   42.9522 C.ar    1  ZINC000081577146   -0.1100
     21 C21         1.7216    0.8962   43.6372 C.ar    1  ZINC000081577146   -0.1100
     22 C22         1.4482    0.8024   44.9862 C.ar    1  ZINC000081577146   -0.0900
     23 O23         0.0027    2.7423   47.8683 O.3     1  ZINC000081577146   -0.2000
     24 C24        -2.3722    1.2837   50.1296 C.3     1  ZINC000081577146    0.0600
     25 C25        -3.8823    1.0375   50.1666 C.3     1  ZINC000081577146    0.0500
     26 N26        -6.6283    1.6833   52.4139 N.2     1  ZINC000081577146   -0.5400
     27 H27        -9.4019    2.6748   52.7823 H       1  ZINC000081577146    0.0900
     28 H28        -9.6973    1.0314   53.3989 H       1  ZINC000081577146    0.0900
     29 H29        -8.4960    2.0776   54.1933 H       1  ZINC000081577146    0.0900
     30 H30        -4.6262    3.4624   50.9911 H       1  ZINC000081577146    0.0700
     31 H31        -4.5266    3.1136   52.7341 H       1  ZINC000081577146    0.1100
     32 H32        -2.4288    4.1541   51.8834 H       1  ZINC000081577146    0.1000
     33 H33        -2.1449    2.5046   52.4900 H       1  ZINC000081577146    0.0600
     34 H34        -0.9668    4.8249   49.1994 H       1  ZINC000081577146    0.0800
     35 H35        -0.8842    5.0318   50.9654 H       1  ZINC000081577146    0.0800
     36 H36         0.6007    4.7174   50.0357 H       1  ZINC000081577146    0.0700
     37 H37         1.2784   -0.2062   47.6167 H       1  ZINC000081577146    0.1900
     38 H38         0.1705    3.9085   45.4744 H       1  ZINC000081577146    0.1300
     39 H39         0.6766    4.0576   43.0720 H       1  ZINC000081577146    0.1300
     40 H40         1.6662    2.1362   41.8972 H       1  ZINC000081577146    0.1300
     41 H41         2.1554    0.0559   43.1156 H       1  ZINC000081577146    0.1300
     42 H42         1.6640   -0.1114   45.5199 H       1  ZINC000081577146    0.1300
     43 H43        -1.9847    1.0202   49.1455 H       1  ZINC000081577146    0.0900
     44 H44        -1.8852    0.6714   50.8885 H       1  ZINC000081577146    0.0500
     45 H45        -4.0825   -0.0203   49.9961 H       1  ZINC000081577146    0.1000
     46 H46        -4.3664    1.6293   49.3897 H       1  ZINC000081577146    0.0800
@<TRIPOS>BOND
     1     1     2    1
     2     1    27    1
     3     1    28    1
     4     1    29    1
     5     2    26    1
     6     2     3    2
     7     3     4    1
     8     4     5    1
     9     5     6    1
    10     5    26    2
    11     6    25    1
    12     6     7    1
    13     7     8    1
    14     7    30    1
    15     7    31    1
    16     8     9    1
    17     8    32    1
    18     8    33    1
    19     9    10    1
    20     9    24    1
    21    10    11    1
    22    10    12    1
    23    10    13    1
    24    12    34    1
    25    12    35    1
    26    12    36    1
    27    13    23    1
    28    13    14    2
    29    14    15    1
    30    15    16    2
    31    15    37    1
    32    16    17    1
    33    16    23    1
    34    17    22   ar
    35    17    18   ar
    36    18    19   ar
    37    18    38    1
    38    19    20   ar
    39    19    39    1
    40    20    21   ar
    41    20    40    1
    42    21    22   ar
    43    21    41    1
    44    22    42    1
    45    24    25    1
    46    24    43    1
    47    24    44    1
    48    25    45    1
    49    25    46    1
@<TRIPOS>SUBSTRUCTURE
     1 ZINC000081577146        1 TEMP              0 ****  ****    0 ROOT


##########                                Name:    ZINC000458730620
##########                DOCK_Rotatable_Bonds:                   9
##########                         Heavy_Atoms:                  25
##########                    Molecular_Weight:              375.44
##########                DOCK_Rotatable_Bonds:                   9
##########                       Formal_Charge:        -1.86265e-07
##########                     HBond_Acceptors:                   9
##########                        HBond_Donors:                   3
##########                         Heavy_Atoms:                  25
##########                          Grid_Score:          -30.739532
##########                     Grid_vdw_energy:          -29.184328
##########                      Grid_es_energy:           -1.555204
##########           Internal_energy_repulsive:           55.650711

@<TRIPOS>MOLECULE
ZINC000458730620
 48 49 1 0 0
SMALL
USER_CHARGES


@<TRIPOS>ATOM
      1 C1         -0.7877    3.5925   49.5155 C.3     1  ZINC000458730620   -0.1600
      2 C2         -0.5385    2.3906   50.4290 C.3     1  ZINC000458730620    0.2000
      3 C3          0.5595    2.7354   51.4372 C.3     1  ZINC000458730620   -0.1600
      4 N4         -1.7722    2.0577   51.1455 N.am    1  ZINC000458730620   -0.7400
      5 C5         -2.8442    1.6036   50.4665 C.2     1  ZINC000458730620    0.7100
      6 O6         -2.7879    1.4716   49.2590 O.2     1  ZINC000458730620   -0.5800
      7 N7         -3.9787    1.2958   51.1258 N.am    1  ZINC000458730620   -0.7500
      8 C8         -5.1433    0.8005   50.3879 C.3     1  ZINC000458730620    0.1300
      9 C9         -6.4186    1.1329   51.1652 C.3     1  ZINC000458730620    0.1000
     10 N10        -7.1242    2.2306   50.4993 N.am    1  ZINC000458730620   -1.1100
     11 S11        -8.0794    3.2566   51.3811 S.o2    1  ZINC000458730620    2.7000
     12 O12        -7.2682    3.7506   52.4382 O.2     1  ZINC000458730620   -0.9400
     13 O13        -8.7335    4.1009   50.4438 O.2     1  ZINC000458730620   -0.9400
     14 C14        -9.3377    2.2800   52.1342 C.ar    1  ZINC000458730620   -0.7300
     15 C15        -9.0326    1.4731   53.2138 C.ar    1  ZINC000458730620    0.0400
     16 C16       -10.0189    0.7068   53.8058 C.ar    1  ZINC000458730620   -0.1800
     17 C17       -11.3138    0.7467   53.3177 C.ar    1  ZINC000458730620    0.1900
     18 F18       -12.2778   -0.0021   53.8969 F       1  ZINC000458730620   -0.1200
     19 C19       -11.6208    1.5547   52.2362 C.ar    1  ZINC000458730620   -0.2100
     20 C20       -10.6335    2.3255   51.6475 C.ar    1  ZINC000458730620    0.2200
     21 F21       -10.9316    3.1144   50.5920 F       1  ZINC000458730620   -0.1100
     22 C22        -0.0989    1.1918   49.5861 C.3     1  ZINC000458730620   -0.1100
     23 C23        -0.2444    1.4170   48.0719 C.3     1  ZINC000458730620   -0.1400
     24 C24         1.0990    0.6856   47.9135 C.3     1  ZINC000458730620   -0.1400
     25 C25         1.4195    1.1276   49.3511 C.3     1  ZINC000458730620   -0.1400
     26 H26         0.1448    3.8787   49.0291 H       1  ZINC000458730620    0.0600
     27 H27        -1.5256    3.3266   48.7585 H       1  ZINC000458730620    0.0500
     28 H28        -1.1600    4.4281   50.1079 H       1  ZINC000458730620    0.0800
     29 H29         0.2464    3.5895   52.0376 H       1  ZINC000458730620    0.0800
     30 H30         0.7371    1.8793   52.0880 H       1  ZINC000458730620    0.0500
     31 H31         1.4775    2.9832   50.9040 H       1  ZINC000458730620    0.0600
     32 H32        -1.8175    2.1640   52.1085 H       1  ZINC000458730620    0.3900
     33 H33        -4.0240    1.4022   52.0889 H       1  ZINC000458730620    0.4000
     34 H34        -5.1813    1.2754   49.4076 H       1  ZINC000458730620    0.0800
     35 H35        -5.0636   -0.2797   50.2656 H       1  ZINC000458730620    0.0800
     36 H36        -7.0629    0.2543   51.1990 H       1  ZINC000458730620    0.0900
     37 H37        -6.1579    1.4314   52.1805 H       1  ZINC000458730620    0.0700
     38 H38        -7.0319    2.3565   49.5420 H       1  ZINC000458730620    0.4300
     39 H39        -8.0226    1.4411   53.5950 H       1  ZINC000458730620    0.1700
     40 H40        -9.7792    0.0763   54.6493 H       1  ZINC000458730620    0.1600
     41 H41       -12.6306    1.5864   51.8547 H       1  ZINC000458730620    0.1600
     42 H42        -0.5273    0.2512   49.9321 H       1  ZINC000458730620    0.1100
     43 H43        -1.0864    0.8842   47.6301 H       1  ZINC000458730620    0.0700
     44 H44        -0.2069    2.4669   47.7810 H       1  ZINC000458730620    0.0800
     45 H45         0.9978   -0.3939   47.8009 H       1  ZINC000458730620    0.0800
     46 H46         1.7529    1.1310   47.1637 H       1  ZINC000458730620    0.0700
     47 H47         1.9119    2.0983   49.4099 H       1  ZINC000458730620    0.0800
     48 H48         1.9207    0.3611   49.9420 H       1  ZINC000458730620    0.0700
@<TRIPOS>BOND
     1     1     2    1
     2     1    26    1
     3     1    27    1
     4     1    28    1
     5     2     3    1
     6     2     4    1
     7     2    22    1
     8     3    29    1
     9     3    30    1
    10     3    31    1
    11     4     5   am
    12     4    32    1
    13     5     6    2
    14     5     7   am
    15     7     8    1
    16     7    33    1
    17     8     9    1
    18     8    34    1
    19     8    35    1
    20     9    10    1
    21     9    36    1
    22     9    37    1
    23    10    11   am
    24    10    38    1
    25    11    12    2
    26    11    13    2
    27    11    14    1
    28    14    20   ar
    29    14    15   ar
    30    15    16   ar
    31    15    39    1
    32    16    17   ar
    33    16    40    1
    34    17    18    1
    35    17    19   ar
    36    19    20   ar
    37    19    41    1
    38    20    21    1
    39    22    25    1
    40    22    23    1
    41    22    42    1
    42    23    24    1
    43    23    43    1
    44    23    44    1
    45    24    25    1
    46    24    45    1
    47    24    46    1
    48    25    47    1
    49    25    48    1
@<TRIPOS>SUBSTRUCTURE
     1 ZINC000458730620        1 TEMP              0 ****  ****    0 ROOT


##########                                Name:    ZINC001386869844
##########                DOCK_Rotatable_Bonds:                   9
##########                         Heavy_Atoms:                  25
##########                    Molecular_Weight:             345.485
##########                DOCK_Rotatable_Bonds:                   9
##########                       Formal_Charge:          -0.0300003
##########                     HBond_Acceptors:                   5
##########                        HBond_Donors:                   2
##########                         Heavy_Atoms:                  25
##########                          Grid_Score:          -30.737692
##########                     Grid_vdw_energy:          -30.090187
##########                      Grid_es_energy:           -0.647504
##########           Internal_energy_repulsive:           27.008942

@<TRIPOS>MOLECULE
ZINC001386869844
 56 58 1 0 0
SMALL
USER_CHARGES


@<TRIPOS>ATOM
      1 C1         -3.8617    2.9434   52.0325 C.3     1  ZINC001386869844    0.0600
      2 N2         -3.7563    1.8487   51.0646 N.am    1  ZINC001386869844   -0.6200
      3 C3         -2.4389    1.3983   50.6089 C.3     1  ZINC001386869844    0.1100
      4 C4         -1.9760    2.2733   49.4423 C.3     1  ZINC001386869844    0.1000
      5 N5         -0.7978    1.6687   48.8159 N.am    1  ZINC001386869844   -0.7300
      6 C6          0.1356    2.4519   48.2396 C.2     1  ZINC001386869844    0.5200
      7 O7         -0.0025    3.6567   48.2352 O.2     1  ZINC001386869844   -0.5300
      8 C8          1.3477    1.8299   47.5952 C.3     1  ZINC001386869844   -0.1300
      9 C9          1.0583    1.5623   46.1169 C.3     1  ZINC001386869844   -0.0100
     10 C10         2.2886    0.9305   45.4626 C.3     1  ZINC001386869844   -0.1500
     11 C11        -0.1312    0.6078   45.9946 C.3     1  ZINC001386869844   -0.1600
     12 C12         0.7281    2.8812   45.4151 C.3     1  ZINC001386869844   -0.1500
     13 C13        -0.6986    3.0665   44.8945 C.3     1  ZINC001386869844   -0.1900
     14 C14         0.4507    2.8310   43.9112 C.3     1  ZINC001386869844   -0.1800
     15 C15        -4.8713    1.2562   50.5933 C.2     1  ZINC001386869844    0.5900
     16 O16        -4.7837    0.3471   49.7892 O.2     1  ZINC001386869844   -0.5200
     17 C17        -6.1903    1.7073   51.0496 C.2     1  ZINC001386869844   -0.0600
     18 C18        -6.9001    2.7832   50.5553 C.2     1  ZINC001386869844   -0.0900
     19 C19        -8.0921    2.8480   51.2723 C.2     1  ZINC001386869844   -0.1700
     20 C20        -8.0948    1.8331   52.1770 C.2     1  ZINC001386869844    0.0500
     21 C21        -9.2230    1.5738   53.1469 C.3     1  ZINC001386869844   -0.0600
     22 C22       -10.0963    2.8318   53.2213 C.3     1  ZINC001386869844   -0.1100
     23 C23       -10.4606    3.2862   51.8053 C.3     1  ZINC001386869844   -0.1200
     24 C24        -9.2125    3.8449   51.1111 C.3     1  ZINC001386869844   -0.0500
     25 N25        -6.9483    1.1303   52.0453 N.pl3   1  ZINC001386869844   -0.5400
     26 H26        -4.0343    3.8807   51.5037 H       1  ZINC001386869844    0.0600
     27 H27        -4.6932    2.7501   52.7104 H       1  ZINC001386869844    0.0800
     28 H28        -2.9361    3.0136   52.6038 H       1  ZINC001386869844    0.0900
     29 H29        -2.5029    0.3605   50.2816 H       1  ZINC001386869844    0.1000
     30 H30        -1.7244    1.4774   51.4283 H       1  ZINC001386869844    0.0900
     31 H31        -1.7215    3.2666   49.8119 H       1  ZINC001386869844    0.0700
     32 H32        -2.7773    2.3532   48.7078 H       1  ZINC001386869844    0.0700
     33 H33        -0.6894    0.7048   48.8158 H       1  ZINC001386869844    0.4000
     34 H34         2.1948    2.5102   47.6823 H       1  ZINC001386869844    0.0900
     35 H35         1.5832    0.8905   48.0952 H       1  ZINC001386869844    0.0900
     36 H36         2.5239   -0.0090   45.9626 H       1  ZINC001386869844    0.0800
     37 H37         2.0824    0.7400   44.4094 H       1  ZINC001386869844    0.0500
     38 H38         3.1361    1.6106   45.5497 H       1  ZINC001386869844    0.0500
     39 H39        -1.0076    1.0579   46.4607 H       1  ZINC001386869844    0.0500
     40 H40        -0.3373    0.4172   44.9414 H       1  ZINC001386869844    0.0500
     41 H41         0.1041   -0.3317   46.4946 H       1  ZINC001386869844    0.0800
     42 H42         1.2405    3.7614   45.8031 H       1  ZINC001386869844    0.1000
     43 H43        -1.4020    2.2489   45.0519 H       1  ZINC001386869844    0.1000
     44 H44        -1.1247    4.0688   44.9399 H       1  ZINC001386869844    0.0900
     45 H45         0.7803    3.6785   43.3101 H       1  ZINC001386869844    0.0900
     46 H46         0.5035    1.8585   43.4219 H       1  ZINC001386869844    0.0900
     47 H47        -6.5897    3.4486   49.7632 H       1  ZINC001386869844    0.1500
     48 H48        -9.8210    0.7320   52.7977 H       1  ZINC001386869844    0.0800
     49 H49        -8.8154    1.3512   54.1330 H       1  ZINC001386869844    0.0800
     50 H50       -11.0072    2.6092   53.7768 H       1  ZINC001386869844    0.0700
     51 H51        -9.5472    3.6257   53.7274 H       1  ZINC001386869844    0.0700
     52 H52       -10.8425    2.4373   51.2382 H       1  ZINC001386869844    0.0600
     53 H53       -11.2250    4.0615   51.8579 H       1  ZINC001386869844    0.0700
     54 H54        -8.9300    4.7922   51.5704 H       1  ZINC001386869844    0.0700
     55 H55        -9.4189    3.9972   50.0516 H       1  ZINC001386869844    0.0700
     56 H56        -6.6994    0.3509   52.5663 H       1  ZINC001386869844    0.4200
@<TRIPOS>BOND
     1     1     2    1
     2     1    26    1
     3     1    27    1
     4     1    28    1
     5     2     3    1
     6     2    15   am
     7     3     4    1
     8     3    29    1
     9     3    30    1
    10     4     5    1
    11     4    31    1
    12     4    32    1
    13     5     6   am
    14     5    33    1
    15     6     7    2
    16     6     8    1
    17     8     9    1
    18     8    34    1
    19     8    35    1
    20     9    10    1
    21     9    11    1
    22     9    12    1
    23    10    36    1
    24    10    37    1
    25    10    38    1
    26    11    39    1
    27    11    40    1
    28    11    41    1
    29    12    14    1
    30    12    13    1
    31    12    42    1
    32    13    14    1
    33    13    43    1
    34    13    44    1
    35    14    45    1
    36    14    46    1
    37    15    16    2
    38    15    17    1
    39    17    25    1
    40    17    18    2
    41    18    19    1
    42    18    47    1
    43    19    24    1
    44    19    20    2
    45    20    21    1
    46    20    25    1
    47    21    22    1
    48    21    48    1
    49    21    49    1
    50    22    23    1
    51    22    50    1
    52    22    51    1
    53    23    24    1
    54    23    52    1
    55    23    53    1
    56    24    54    1
    57    24    55    1
    58    25    56    1
@<TRIPOS>SUBSTRUCTURE
     1 ZINC001386869844        1 TEMP              0 ****  ****    0 ROOT


##########                                Name:    ZINC000541315701
##########                DOCK_Rotatable_Bonds:                   4
##########                         Heavy_Atoms:                  25
##########                    Molecular_Weight:             422.709
##########                DOCK_Rotatable_Bonds:                   4
##########                       Formal_Charge:           0.0300003
##########                     HBond_Acceptors:                   6
##########                        HBond_Donors:                   0
##########                         Heavy_Atoms:                  25
##########                          Grid_Score:          -30.734728
##########                     Grid_vdw_energy:          -30.126341
##########                      Grid_es_energy:           -0.608388
##########           Internal_energy_repulsive:           27.184092

@<TRIPOS>MOLECULE
ZINC000541315701
 42 44 1 0 0
SMALL
USER_CHARGES


@<TRIPOS>ATOM
      1 C1         -0.8451    1.3041   45.8548 C.3     1  ZINC000541315701    0.0800
      2 N2         -0.3073    2.6070   46.2543 N.am    1  ZINC000541315701   -0.5700
      3 C3         -0.4931    3.0560   47.5114 C.2     1  ZINC000541315701    0.5400
      4 O4         -0.0479    4.1345   47.8421 O.2     1  ZINC000541315701   -0.5000
      5 C5         -1.2539    2.2177   48.5062 C.3     1  ZINC000541315701   -0.1100
      6 H6         -2.2259    1.9282   48.1066 H       1  ZINC000541315701    0.1300
      7 C7         -0.4346    0.9747   48.9237 C.3     1  ZINC000541315701   -0.1500
      8 C8          0.2954    1.4143   50.1737 C.2     1  ZINC000541315701    0.5200
      9 O9          1.2491    0.8429   50.6583 O.2     1  ZINC000541315701   -0.5200
     10 N10        -0.2666    2.5303   50.6689 N.am    1  ZINC000541315701   -0.6100
     11 C11         0.2000    3.2280   51.8697 C.3     1  ZINC000541315701    0.0900
     12 C12        -1.4084    2.9608   49.8517 C.3     1  ZINC000541315701    0.1900
     13 H13        -1.3741    4.0388   49.6938 H       1  ZINC000541315701    0.1100
     14 C14        -2.7028    2.5731   50.5188 C.ar    1  ZINC000541315701   -0.0900
     15 C15        -3.2872    3.4226   51.4393 C.ar    1  ZINC000541315701   -0.1000
     16 C16        -4.4751    3.0679   52.0516 C.ar    1  ZINC000541315701   -0.1000
     17 C17        -5.0785    1.8634   51.7437 C.ar    1  ZINC000541315701   -0.1000
     18 C18        -4.4941    1.0126   50.8222 C.ar    1  ZINC000541315701   -0.0300
     19 Cl19       -5.2520   -0.5003   50.4344 Cl      1  ZINC000541315701   -0.0600
     20 C20        -3.3085    1.3706   50.2058 C.ar    1  ZINC000541315701   -0.0900
     21 C21         0.3966    3.3826   45.3338 C.ar    1  ZINC000541315701    0.3800
     22 N22        -0.2547    4.2411   44.5659 N.ar    1  ZINC000541315701   -0.4700
     23 C23         0.3728    4.9941   43.6826 C.ar    1  ZINC000541315701    0.1300
     24 C24         1.7422    4.9120   43.5273 C.ar    1  ZINC000541315701   -0.1600
     25 C25         2.4636    4.0237   44.3135 C.ar    1  ZINC000541315701   -0.0400
     26 C26         1.7780    3.2510   45.2350 C.ar    1  ZINC000541315701   -0.1300
     27 Br27        2.7050    2.0234   46.3349 Br      1  ZINC000541315701   -0.0200
     28 H28        -1.7844    1.1231   46.3774 H       1  ZINC000541315701    0.0900
     29 H29        -1.0208    1.2979   44.7790 H       1  ZINC000541315701    0.0800
     30 H30        -0.1302    0.5221   46.1107 H       1  ZINC000541315701    0.0700
     31 H31        -1.0970    0.1373   49.1433 H       1  ZINC000541315701    0.1200
     32 H32         0.2757    0.7057   48.1417 H       1  ZINC000541315701    0.1100
     33 H33         1.0594    2.7017   52.2848 H       1  ZINC000541315701    0.0900
     34 H34         0.4886    4.2463   51.6092 H       1  ZINC000541315701    0.0700
     35 H35        -0.6011    3.2551   52.6084 H       1  ZINC000541315701    0.0600
     36 H36        -2.8154    4.3637   51.6808 H       1  ZINC000541315701    0.1300
     37 H37        -4.9312    3.7321   52.7708 H       1  ZINC000541315701    0.1400
     38 H38        -6.0061    1.5862   52.2225 H       1  ZINC000541315701    0.1400
     39 H39        -2.8520    0.7070   49.4865 H       1  ZINC000541315701    0.1400
     40 H40        -0.1924    5.6836   43.0728 H       1  ZINC000541315701    0.1700
     41 H41         2.2471    5.5323   42.8014 H       1  ZINC000541315701    0.1500
     42 H42         3.5354    3.9406   44.2114 H       1  ZINC000541315701    0.1500
@<TRIPOS>BOND
     1     1     2    1
     2     1    28    1
     3     1    29    1
     4     1    30    1
     5     2     3   am
     6     2    21    1
     7     3     4    2
     8     3     5    1
     9     5     6    1
    10     5    12    1
    11     5     7    1
    12     7     8    1
    13     7    31    1
    14     7    32    1
    15     8     9    2
    16     8    10   am
    17    10    11    1
    18    10    12    1
    19    11    33    1
    20    11    34    1
    21    11    35    1
    22    12    13    1
    23    12    14    1
    24    14    20   ar
    25    14    15   ar
    26    15    16   ar
    27    15    36    1
    28    16    17   ar
    29    16    37    1
    30    17    18   ar
    31    17    38    1
    32    18    19    1
    33    18    20   ar
    34    20    39    1
    35    21    26   ar
    36    21    22   ar
    37    22    23   ar
    38    23    24   ar
    39    23    40    1
    40    24    25   ar
    41    24    41    1
    42    25    26   ar
    43    25    42    1
    44    26    27    1
@<TRIPOS>SUBSTRUCTURE
     1 ZINC000541315701        1 TEMP              0 ****  ****    0 ROOT


##########                                Name:    ZINC000004313955
##########                DOCK_Rotatable_Bonds:                   6
##########                         Heavy_Atoms:                  26
##########                    Molecular_Weight:             414.358
##########                DOCK_Rotatable_Bonds:                   6
##########                       Formal_Charge:           0.0299997
##########                     HBond_Acceptors:                   9
##########                        HBond_Donors:                   2
##########                         Heavy_Atoms:                  26
##########                          Grid_Score:          -30.716877
##########                     Grid_vdw_energy:          -30.142466
##########                      Grid_es_energy:           -0.574411
##########           Internal_energy_repulsive:            9.733818

@<TRIPOS>MOLECULE
ZINC000004313955
 47 49 1 0 0
SMALL
USER_CHARGES


@<TRIPOS>ATOM
      1 C1        -11.5103   -1.8689   56.9466 C.3     1  ZINC000004313955   -0.1500
      2 C2        -10.3786   -1.1064   57.6387 C.3     1  ZINC000004313955   -0.1100
      3 H3         -9.4340   -1.3275   57.1419 H       1  ZINC000004313955    0.0800
      4 C4        -10.2967   -1.5346   59.1057 C.3     1  ZINC000004313955   -0.1100
      5 C5         -9.1440   -0.7968   59.7906 C.3     1  ZINC000004313955   -0.1100
      6 H6         -9.0715   -1.1197   60.8293 H       1  ZINC000004313955    0.0900
      7 C7         -7.8339   -1.1113   59.0655 C.3     1  ZINC000004313955   -0.1500
      8 C8         -9.4074    0.7114   59.7413 C.3     1  ZINC000004313955    0.1200
      9 N9         -9.6313    1.1068   58.3440 N.am    1  ZINC000004313955   -0.6000
     10 C10        -8.9103    2.1002   57.7874 C.2     1  ZINC000004313955    0.5400
     11 O11        -8.0681    2.6779   58.4415 O.2     1  ZINC000004313955   -0.5300
     12 C12        -9.1506    2.4930   56.3525 C.3     1  ZINC000004313955   -0.1400
     13 S13        -8.3783    4.0976   56.0289 S.3     1  ZINC000004313955    0.0800
     14 C14        -7.6631    3.7800   54.4501 C.2     1  ZINC000004313955    0.1100
     15 N15        -8.2018    4.0486   53.2819 N.2     1  ZINC000004313955   -0.2800
     16 N16        -7.4094    3.6871   52.3369 N.2     1  ZINC000004313955   -0.2400
     17 C17        -6.3163    3.1656   52.8434 C.2     1  ZINC000004313955    0.2500
     18 C18        -5.1645    2.6324   52.0857 C.ar    1  ZINC000004313955   -0.0100
     19 C19        -3.9428    3.3067   52.1014 C.ar    1  ZINC000004313955   -0.0700
     20 C20        -2.8715    2.8043   51.3922 C.ar    1  ZINC000004313955   -0.1100
     21 C21        -3.0059    1.6336   50.6652 C.ar    1  ZINC000004313955   -0.0100
     22 Cl22       -1.6527    1.0088   49.7751 Cl      1  ZINC000004313955   -0.0500
     23 C23        -4.2150    0.9589   50.6453 C.ar    1  ZINC000004313955   -0.1100
     24 C24        -5.2929    1.4483   51.3554 C.ar    1  ZINC000004313955    0.0100
     25 Cl25       -6.8082    0.6018   51.3298 Cl      1  ZINC000004313955   -0.0100
     26 N26        -6.4428    3.2140   54.2125 N.pl3   1  ZINC000004313955   -0.3000
     27 N27        -5.5397    2.7793   55.1407 N.3     1  ZINC000004313955   -0.5800
     28 C28       -10.6555    0.3984   57.5642 C.3     1  ZINC000004313955    0.1100
     29 H29       -11.5690   -1.5627   55.9022 H       1  ZINC000004313955    0.0600
     30 H30       -11.3134   -2.9395   57.0010 H       1  ZINC000004313955    0.0600
     31 H31       -12.4547   -1.6474   57.4438 H       1  ZINC000004313955    0.0600
     32 H32       -11.2330   -1.2913   59.6079 H       1  ZINC000004313955    0.0700
     33 H33       -10.1239   -2.6094   59.1611 H       1  ZINC000004313955    0.0700
     34 H34        -7.9065   -0.7872   58.0273 H       1  ZINC000004313955    0.0600
     35 H35        -7.0133   -0.5856   59.5536 H       1  ZINC000004313955    0.0600
     36 H36        -7.6487   -2.1849   59.0989 H       1  ZINC000004313955    0.0600
     37 H37       -10.2910    0.9476   60.3341 H       1  ZINC000004313955    0.0700
     38 H38        -8.5446    1.2462   60.1385 H       1  ZINC000004313955    0.1000
     39 H39        -8.7171    1.7414   55.6927 H       1  ZINC000004313955    0.1300
     40 H40       -10.2229    2.5622   56.1695 H       1  ZINC000004313955    0.1300
     41 H41        -3.8364    4.2203   52.6675 H       1  ZINC000004313955    0.1600
     42 H42        -1.9256    3.3256   51.4039 H       1  ZINC000004313955    0.1500
     43 H43        -4.3138    0.0464   50.0764 H       1  ZINC000004313955    0.1500
     44 H44        -6.0067    2.4386   55.9677 H       1  ZINC000004313955    0.3700
     45 H45        -4.9325    2.0735   54.7516 H       1  ZINC000004313955    0.3800
     46 H46       -10.6163    0.7271   56.5257 H       1  ZINC000004313955    0.0900
     47 H47       -11.6413    0.6088   57.9792 H       1  ZINC000004313955    0.0800
@<TRIPOS>BOND
     1     1     2    1
     2     1    29    1
     3     1    30    1
     4     1    31    1
     5     2     3    1
     6     2    28    1
     7     2     4    1
     8     4     5    1
     9     4    32    1
    10     4    33    1
    11     5     6    1
    12     5     7    1
    13     5     8    1
    14     7    34    1
    15     7    35    1
    16     7    36    1
    17     8     9    1
    18     8    37    1
    19     8    38    1
    20     9    10   am
    21     9    28    1
    22    10    11    2
    23    10    12    1
    24    12    13    1
    25    12    39    1
    26    12    40    1
    27    13    14    1
    28    14    26    1
    29    14    15    2
    30    15    16    1
    31    16    17    2
    32    17    18    1
    33    17    26    1
    34    18    24   ar
    35    18    19   ar
    36    19    20   ar
    37    19    41    1
    38    20    21   ar
    39    20    42    1
    40    21    22    1
    41    21    23   ar
    42    23    24   ar
    43    23    43    1
    44    24    25    1
    45    26    27    1
    46    27    44    1
    47    27    45    1
    48    28    46    1
    49    28    47    1
@<TRIPOS>SUBSTRUCTURE
     1 ZINC000004313955        1 TEMP              0 ****  ****    0 ROOT


##########                                Name:    ZINC000646817380
##########                DOCK_Rotatable_Bonds:                   6
##########                         Heavy_Atoms:                  25
##########                    Molecular_Weight:             347.457
##########                DOCK_Rotatable_Bonds:                   6
##########                       Formal_Charge:           0.0199991
##########                     HBond_Acceptors:                   6
##########                        HBond_Donors:                   1
##########                         Heavy_Atoms:                  25
##########                          Grid_Score:          -30.703243
##########                     Grid_vdw_energy:          -29.459887
##########                      Grid_es_energy:           -1.243357
##########           Internal_energy_repulsive:           57.225235

@<TRIPOS>MOLECULE
ZINC000646817380
 54 56 1 0 0
SMALL
USER_CHARGES


@<TRIPOS>ATOM
      1 C1         -9.7092    4.0579   54.0956 C.3     1  ZINC000646817380   -0.1500
      2 C2        -10.4272    3.2992   52.9776 C.3     1  ZINC000646817380   -0.0100
      3 C3        -10.7556    4.2634   51.8361 C.3     1  ZINC000646817380   -0.1500
      4 C4         -9.5351    2.1983   52.4644 C.2     1  ZINC000646817380   -0.0100
      5 C5         -8.3468    2.3479   51.8363 C.2     1  ZINC000646817380   -0.2200
      6 C6         -7.9307    1.0162   51.5688 C.2     1  ZINC000646817380    0.2400
      7 N7         -6.7576    0.6185   50.9303 N.am    1  ZINC000646817380   -0.6100
      8 C8         -5.5765    1.1553   51.2953 C.2     1  ZINC000646817380    0.5200
      9 O9         -5.5343    1.9840   52.1808 O.2     1  ZINC000646817380   -0.4900
     10 C10        -4.3192    0.7304   50.6098 C.2     1  ZINC000646817380    0.5300
     11 O11        -4.2706   -0.3403   50.0405 O.2     1  ZINC000646817380   -0.5100
     12 N12        -3.2387    1.5359   50.6235 N.am    1  ZINC000646817380   -0.5800
     13 C13        -3.1600    2.8528   51.2724 C.3     1  ZINC000646817380    0.1000
     14 C14        -1.7467    3.4118   51.0044 C.3     1  ZINC000646817380   -0.1300
     15 C15        -1.2970    2.6295   49.7423 C.3     1  ZINC000646817380   -0.1000
     16 H16        -1.6945    3.0875   48.8365 H       1  ZINC000646817380    0.1000
     17 C17         0.2279    2.5244   49.6765 C.3     1  ZINC000646817380   -0.0700
     18 H18         0.6445    2.5072   50.6836 H       1  ZINC000646817380    0.0800
     19 C19         0.6373    1.2477   48.9134 C.3     1  ZINC000646817380   -0.1300
     20 C20         1.8911    1.6715   48.1089 C.3     1  ZINC000646817380   -0.1300
     21 C21         1.5440    3.1162   47.6712 C.3     1  ZINC000646817380   -0.1200
     22 C22         0.8046    3.7131   48.8877 C.3     1  ZINC000646817380   -0.0700
     23 C23        -0.3277    4.6276   48.4158 C.3     1  ZINC000646817380   -0.1600
     24 C24         1.7837    4.4988   49.7624 C.3     1  ZINC000646817380   -0.1400
     25 C25        -1.9382    1.2397   49.9956 C.3     1  ZINC000646817380    0.0900
     26 N26        -8.8692    0.2387   52.0421 N.2     1  ZINC000646817380   -0.3800
     27 O27        -9.7620    0.8794   52.5466 O.3     1  ZINC000646817380    0.1100
     28 H28       -10.3545    4.8541   54.4668 H       1  ZINC000646817380    0.0700
     29 H29        -9.4752    3.3710   54.9088 H       1  ZINC000646817380    0.0600
     30 H30        -8.7864    4.4892   53.7074 H       1  ZINC000646817380    0.0600
     31 H31       -11.3499    2.8679   53.3657 H       1  ZINC000646817380    0.1100
     32 H32        -9.8328    4.6947   51.4479 H       1  ZINC000646817380    0.0600
     33 H33       -11.2671    3.7229   51.0397 H       1  ZINC000646817380    0.0600
     34 H34       -11.4008    5.0597   52.2073 H       1  ZINC000646817380    0.0700
     35 H35        -7.8333    3.2667   51.5940 H       1  ZINC000646817380    0.1900
     36 H36        -6.7911   -0.0448   50.2233 H       1  ZINC000646817380    0.4300
     37 H37        -3.9095    3.5207   50.8479 H       1  ZINC000646817380    0.0800
     38 H38        -3.3196    2.7474   52.3455 H       1  ZINC000646817380    0.0800
     39 H39        -1.7876    4.4819   50.8007 H       1  ZINC000646817380    0.0900
     40 H40        -1.0838    3.2030   51.8441 H       1  ZINC000646817380    0.0800
     41 H41         0.8845    0.4484   49.6121 H       1  ZINC000646817380    0.0700
     42 H42        -0.1602    0.9337   48.2398 H       1  ZINC000646817380    0.0800
     43 H43         2.7780    1.6624   48.7425 H       1  ZINC000646817380    0.0700
     44 H44         2.0288    1.0273   47.2405 H       1  ZINC000646817380    0.0700
     45 H45         2.4532    3.6806   47.4633 H       1  ZINC000646817380    0.0700
     46 H46         0.8932    3.1041   46.7969 H       1  ZINC000646817380    0.0700
     47 H47        -0.8042    4.1922   47.5375 H       1  ZINC000646817380    0.0700
     48 H48        -1.0636    4.7353   49.2126 H       1  ZINC000646817380    0.0600
     49 H49         0.0782    5.6067   48.1613 H       1  ZINC000646817380    0.0500
     50 H50         2.2046    5.3229   49.1865 H       1  ZINC000646817380    0.0600
     51 H51         1.2577    4.8942   50.6314 H       1  ZINC000646817380    0.0500
     52 H52         2.5860    3.8391   50.0925 H       1  ZINC000646817380    0.0600
     53 H53        -1.3129    0.6500   50.6660 H       1  ZINC000646817380    0.0900
     54 H54        -2.0869    0.7131   49.0530 H       1  ZINC000646817380    0.1000
@<TRIPOS>BOND
     1     1     2    1
     2     1    28    1
     3     1    29    1
     4     1    30    1
     5     2     3    1
     6     2     4    1
     7     2    31    1
     8     3    32    1
     9     3    33    1
    10     3    34    1
    11     4    27    1
    12     4     5    2
    13     5     6    1
    14     5    35    1
    15     6     7    1
    16     6    26    2
    17     7     8   am
    18     7    36    1
    19     8     9    2
    20     8    10    1
    21    10    11    2
    22    10    12   am
    23    12    25    1
    24    12    13    1
    25    13    14    1
    26    13    37    1
    27    13    38    1
    28    14    15    1
    29    14    39    1
    30    14    40    1
    31    15    16    1
    32    15    17    1
    33    15    25    1
    34    17    18    1
    35    17    22    1
    36    17    19    1
    37    19    20    1
    38    19    41    1
    39    19    42    1
    40    20    21    1
    41    20    43    1
    42    20    44    1
    43    21    22    1
    44    21    45    1
    45    21    46    1
    46    22    23    1
    47    22    24    1
    48    23    47    1
    49    23    48    1
    50    23    49    1
    51    24    50    1
    52    24    51    1
    53    24    52    1
    54    25    53    1
    55    25    54    1
    56    26    27    1
@<TRIPOS>SUBSTRUCTURE
     1 ZINC000646817380        1 TEMP              0 ****  ****    0 ROOT


##########                                Name:    ZINC001579482641
##########                DOCK_Rotatable_Bonds:                   5
##########                         Heavy_Atoms:                  26
##########                    Molecular_Weight:             355.359
##########                DOCK_Rotatable_Bonds:                   5
##########                       Formal_Charge:                0.05
##########                     HBond_Acceptors:                  11
##########                        HBond_Donors:                   1
##########                         Heavy_Atoms:                  26
##########                          Grid_Score:          -30.694878
##########                     Grid_vdw_energy:          -29.413246
##########                      Grid_es_energy:           -1.281631
##########           Internal_energy_repulsive:           16.291193

@<TRIPOS>MOLECULE
ZINC001579482641
 43 46 1 0 0
SMALL
USER_CHARGES


@<TRIPOS>ATOM
      1 C1         -7.0160    0.4463   50.6449 C.3     1  ZINC001579482641    0.0300
      2 O2         -5.5776    0.5726   50.7980 O.3     1  ZINC001579482641   -0.3300
      3 C3         -5.0227    1.7414   50.4223 C.2     1  ZINC001579482641    0.5300
      4 O4         -5.7311    2.6727   50.0955 O.2     1  ZINC001579482641   -0.4900
      5 C5         -3.5530    1.8904   50.4075 C.ar    1  ZINC001579482641    0.0900
      6 C6         -2.8895    2.2915   51.5683 C.ar    1  ZINC001579482641   -0.0800
      7 C7         -1.5135    2.4296   51.5493 C.ar    1  ZINC001579482641   -0.1200
      8 C8         -0.8345    2.1613   50.3631 C.ar    1  ZINC001579482641    0.1100
      9 N9          0.5466    2.2867   50.2993 N.3     1  ZINC001579482641   -0.4600
     10 C10         0.9714    3.6707   50.6313 C.3     1  ZINC001579482641    0.0400
     11 C11         2.4604    3.4999   51.0241 C.3     1  ZINC001579482641   -0.1100
     12 C12         2.4660    2.1514   51.7801 C.3     1  ZINC001579482641   -0.0100
     13 H13         2.4152    2.3206   52.8557 H       1  ZINC001579482641    0.0900
     14 C14         3.7023    1.3625   51.4333 C.2     1  ZINC001579482641    0.1800
     15 N15         4.6832    1.0666   52.2418 N.2     1  ZINC001579482641   -0.2600
     16 N16         5.5719    0.3829   51.6122 N.2     1  ZINC001579482641   -0.2900
     17 C17         5.1982    0.2115   50.3734 C.2     1  ZINC001579482641    0.1500
     18 N18         3.9987    0.8240   50.2258 N.pl3   1  ZINC001579482641   -0.4800
     19 C19         3.1904    0.8967   49.0061 C.3     1  ZINC001579482641    0.0700
     20 C20         1.2046    1.4131   51.2950 C.3     1  ZINC001579482641    0.0600
     21 C21        -1.5663    1.7616   49.2319 C.ar    1  ZINC001579482641    0.2300
     22 C22        -0.8569    1.4724   47.9615 C.2     1  ZINC001579482641    0.2100
     23 N23        -0.0107    0.4862   47.7388 N.2     1  ZINC001579482641   -0.2600
     24 N24         0.3870    0.5764   46.5163 N.pl3   1  ZINC001579482641   -0.2300
     25 N25        -0.1798    1.5881   45.9574 N.2     1  ZINC001579482641   -0.0500
     26 N26        -0.9558    2.1598   46.8145 N.2     1  ZINC001579482641   -0.2000
     27 N27        -2.8796    1.6360   49.2916 N.ar    1  ZINC001579482641   -0.4000
     28 H28        -7.2822    0.5728   49.5955 H       1  ZINC001579482641    0.0700
     29 H29        -7.3322   -0.5403   50.9836 H       1  ZINC001579482641    0.1100
     30 H30        -7.5134    1.2116   51.2407 H       1  ZINC001579482641    0.0700
     31 H31        -3.4453    2.4924   52.4723 H       1  ZINC001579482641    0.1600
     32 H32        -0.9774    2.7389   52.4343 H       1  ZINC001579482641    0.1600
     33 H33         0.8750    4.3216   49.7622 H       1  ZINC001579482641    0.1000
     34 H34         0.3943    4.0594   51.4702 H       1  ZINC001579482641    0.0600
     35 H35         3.0900    3.4468   50.1359 H       1  ZINC001579482641    0.1000
     36 H36         2.7821    4.3103   51.6783 H       1  ZINC001579482641    0.0800
     37 H37         5.7425   -0.3230   49.6088 H       1  ZINC001579482641    0.2200
     38 H38         2.5130    0.0436   48.9678 H       1  ZINC001579482641    0.0800
     39 H39         2.6117    1.8203   49.0082 H       1  ZINC001579482641    0.0900
     40 H40         3.8452    0.8802   48.1348 H       1  ZINC001579482641    0.0900
     41 H41         0.5327    1.2352   52.1346 H       1  ZINC001579482641    0.0600
     42 H42         1.4834    0.4667   50.8320 H       1  ZINC001579482641    0.1000
     43 H43         1.0154   -0.0237   46.0850 H       1  ZINC001579482641    0.4800
@<TRIPOS>BOND
     1     1     2    1
     2     1    28    1
     3     1    29    1
     4     1    30    1
     5     2     3    1
     6     3     4    2
     7     3     5    1
     8     5    27   ar
     9     5     6   ar
    10     6     7   ar
    11     6    31    1
    12     7     8   ar
    13     7    32    1
    14     8     9    1
    15     8    21   ar
    16     9    20    1
    17     9    10    1
    18    10    11    1
    19    10    33    1
    20    10    34    1
    21    11    12    1
    22    11    35    1
    23    11    36    1
    24    12    13    1
    25    12    14    1
    26    12    20    1
    27    14    18    1
    28    14    15    2
    29    15    16    1
    30    16    17    2
    31    17    18    1
    32    17    37    1
    33    18    19    1
    34    19    38    1
    35    19    39    1
    36    19    40    1
    37    20    41    1
    38    20    42    1
    39    21    22    1
    40    21    27   ar
    41    22    26    1
    42    22    23    2
    43    23    24    1
    44    24    25    1
    45    24    43    1
    46    25    26    2
@<TRIPOS>SUBSTRUCTURE
     1 ZINC001579482641        1 TEMP              0 ****  ****    0 ROOT


##########                                Name:    ZINC000549659617
##########                DOCK_Rotatable_Bonds:                   9
##########                         Heavy_Atoms:                  28
##########                    Molecular_Weight:              418.48
##########                DOCK_Rotatable_Bonds:                   9
##########                       Formal_Charge:          0.00999956
##########                     HBond_Acceptors:                   9
##########                        HBond_Donors:                   1
##########                         Heavy_Atoms:                  28
##########                          Grid_Score:          -30.689278
##########                     Grid_vdw_energy:          -29.722086
##########                      Grid_es_energy:           -0.967192
##########           Internal_energy_repulsive:           24.982376

@<TRIPOS>MOLECULE
ZINC000549659617
 53 55 1 0 0
SMALL
USER_CHARGES


@<TRIPOS>ATOM
      1 C1         -0.3146    5.2026   52.2993 C.3     1  ZINC000549659617   -0.1500
      2 C2         -1.4715    4.4857   51.6001 C.3     1  ZINC000549659617   -0.1500
      3 C3         -1.6193    3.0755   52.1749 C.3     1  ZINC000549659617    0.1100
      4 N4         -2.1764    2.1872   51.1517 N.am    1  ZINC000549659617   -0.6100
      5 C5         -3.5116    2.0405   51.0412 C.2     1  ZINC000549659617    0.7100
      6 O6         -3.9741    1.3045   50.1911 O.2     1  ZINC000549659617   -0.5700
      7 N7         -4.3342    2.7098   51.8731 N.am    1  ZINC000549659617   -0.7400
      8 C8         -5.7856    2.5516   51.7519 C.3     1  ZINC000549659617    0.2300
      9 H9         -6.0120    1.5565   51.3691 H       1  ZINC000549659617    0.1100
     10 C10        -6.4248    2.7266   53.1054 C.ar    1  ZINC000549659617   -0.0900
     11 C11        -5.8529    3.5745   54.0352 C.ar    1  ZINC000549659617   -0.0800
     12 C12        -6.4393    3.7350   55.2769 C.ar    1  ZINC000549659617   -0.1100
     13 C13        -7.5975    3.0480   55.5882 C.ar    1  ZINC000549659617   -0.0700
     14 C14        -8.1700    2.2006   54.6579 C.ar    1  ZINC000549659617   -0.1800
     15 C15        -9.4325    1.4512   54.9975 C.3     1  ZINC000549659617    0.5100
     16 F16        -9.4642    0.2455   54.2886 F       1  ZINC000549659617   -0.1800
     17 F17        -9.4620    1.1856   56.3709 F       1  ZINC000549659617   -0.1700
     18 F18       -10.5433    2.2267   54.6486 F       1  ZINC000549659617   -0.1700
     19 C19        -7.5862    2.0434   53.4150 C.ar    1  ZINC000549659617   -0.0500
     20 C20        -6.3347    3.6058   50.7884 C.3     1  ZINC000549659617   -0.1700
     21 C21        -6.7630    3.1361   49.3968 C.3     1  ZINC000549659617   -0.1700
     22 C22        -7.8202    3.5299   50.4302 C.3     1  ZINC000549659617   -0.1800
     23 C23        -1.2822    1.4584   50.2486 C.3     1  ZINC000549659617    0.1700
     24 H24        -1.4896    0.3896   50.3007 H       1  ZINC000549659617    0.1100
     25 C25         0.1844    1.7297   50.6270 C.3     1  ZINC000549659617   -0.1400
     26 C26         1.0896    1.2422   49.4783 C.3     1  ZINC000549659617   -0.5900
     27 S27         0.0621    1.3798   47.9713 S.o2    1  ZINC000549659617    2.3900
     28 O28         0.5768    2.4135   47.1431 O.2     1  ZINC000549659617   -0.9300
     29 O29        -0.1578    0.0838   47.4313 O.2     1  ZINC000549659617   -0.9400
     30 C30        -1.4674    1.9650   48.7951 C.3     1  ZINC000549659617   -0.6100
     31 H31        -0.2092    6.2073   51.8898 H       1  ZINC000549659617    0.0600
     32 H32        -0.5189    5.2653   53.3681 H       1  ZINC000549659617    0.0600
     33 H33         0.6085    4.6458   52.1379 H       1  ZINC000549659617    0.0600
     34 H34        -2.3946    5.0425   51.7615 H       1  ZINC000549659617    0.0700
     35 H35        -1.2671    4.4229   50.5313 H       1  ZINC000549659617    0.0700
     36 H36        -0.6421    2.7050   52.4846 H       1  ZINC000549659617    0.0800
     37 H37        -2.2874    3.1021   53.0357 H       1  ZINC000549659617    0.0900
     38 H38        -3.9652    3.2960   52.5521 H       1  ZINC000549659617    0.4000
     39 H39        -4.9479    4.1112   53.7918 H       1  ZINC000549659617    0.1300
     40 H40        -5.9921    4.3970   56.0037 H       1  ZINC000549659617    0.1400
     41 H41        -8.0551    3.1729   56.5585 H       1  ZINC000549659617    0.1400
     42 H42        -8.0333    1.3815   52.6882 H       1  ZINC000549659617    0.1400
     43 H43        -5.8866    4.5960   50.8700 H       1  ZINC000549659617    0.1100
     44 H44        -6.5965    3.8174   48.5623 H       1  ZINC000549659617    0.0900
     45 H45        -6.6535    2.0761   49.1674 H       1  ZINC000549659617    0.0900
     46 H46        -8.4063    2.7289   50.8808 H       1  ZINC000549659617    0.1200
     47 H47        -8.3494    4.4701   50.2757 H       1  ZINC000549659617    0.0900
     48 H48         0.3314    2.7988   50.7809 H       1  ZINC000549659617    0.1100
     49 H49         0.4323    1.1922   51.5423 H       1  ZINC000549659617    0.0900
     50 H50         1.9710    1.8782   49.3949 H       1  ZINC000549659617    0.1400
     51 H51         1.3841    0.2056   49.6423 H       1  ZINC000549659617    0.1400
     52 H52        -2.3493    1.5166   48.3374 H       1  ZINC000549659617    0.1400
     53 H53        -1.5282    3.0530   48.7701 H       1  ZINC000549659617    0.1600
@<TRIPOS>BOND
     1     1     2    1
     2     1    31    1
     3     1    32    1
     4     1    33    1
     5     2     3    1
     6     2    34    1
     7     2    35    1
     8     3     4    1
     9     3    36    1
    10     3    37    1
    11     4     5   am
    12     4    23    1
    13     5     6    2
    14     5     7   am
    15     7     8    1
    16     7    38    1
    17     8     9    1
    18     8    10    1
    19     8    20    1
    20    10    19   ar
    21    10    11   ar
    22    11    12   ar
    23    11    39    1
    24    12    13   ar
    25    12    40    1
    26    13    14   ar
    27    13    41    1
    28    14    15    1
    29    14    19   ar
    30    15    16    1
    31    15    17    1
    32    15    18    1
    33    19    42    1
    34    20    22    1
    35    20    21    1
    36    20    43    1
    37    21    22    1
    38    21    44    1
    39    21    45    1
    40    22    46    1
    41    22    47    1
    42    23    24    1
    43    23    30    1
    44    23    25    1
    45    25    26    1
    46    25    48    1
    47    25    49    1
    48    26    27    1
    49    26    50    1
    50    26    51    1
    51    27    28    2
    52    27    29    2
    53    27    30    1
    54    30    52    1
    55    30    53    1
@<TRIPOS>SUBSTRUCTURE
     1 ZINC000549659617        1 TEMP              0 ****  ****    0 ROOT


##########                                Name:    ZINC000963156778
##########                DOCK_Rotatable_Bonds:                   6
##########                         Heavy_Atoms:                  24
##########                    Molecular_Weight:             349.414
##########                DOCK_Rotatable_Bonds:                   6
##########                       Formal_Charge:         -0.00999984
##########                     HBond_Acceptors:                   9
##########                        HBond_Donors:                   2
##########                         Heavy_Atoms:                  24
##########                          Grid_Score:          -30.660471
##########                     Grid_vdw_energy:          -28.521484
##########                      Grid_es_energy:           -2.138987
##########           Internal_energy_repulsive:            8.024207

@<TRIPOS>MOLECULE
ZINC000963156778
 43 46 1 0 0
SMALL
USER_CHARGES


@<TRIPOS>ATOM
      1 C1        -12.4515    0.4726   52.8265 C.3     1  ZINC000963156778   -0.0800
      2 C2        -10.9986    0.8661   52.9005 C.2     1  ZINC000963156778    0.0300
      3 C3        -10.2581    0.8006   54.0314 C.2     1  ZINC000963156778   -0.2600
      4 C4        -10.6949    0.3432   55.3993 C.3     1  ZINC000963156778    0.1300
      5 N5         -9.5138    0.1500   56.2512 N.3     1  ZINC000963156778   -0.5000
      6 C6         -9.8160   -0.7666   57.3806 C.3     1  ZINC000963156778    0.0600
      7 C7         -8.7323   -0.4552   58.4350 C.3     1  ZINC000963156778   -0.1700
      8 H8         -8.0213   -1.2452   58.6768 H       1  ZINC000963156778    0.1200
      9 C9         -8.2732    0.9844   58.1249 C.3     1  ZINC000963156778   -0.1700
     10 H10        -7.2214    1.2695   58.1497 H       1  ZINC000963156778    0.1200
     11 C11        -9.1182    1.4218   56.9092 C.3     1  ZINC000963156778    0.0600
     12 C12        -9.0198    0.6410   59.4629 C.3     1  ZINC000963156778    0.1200
     13 H13       -10.0499    0.9823   59.5652 H       1  ZINC000963156778    0.1400
     14 N14        -8.2294    0.6414   60.6963 N.am    1  ZINC000963156778   -0.7000
     15 C15        -8.6271    1.3798   61.7514 C.2     1  ZINC000963156778    0.5100
     16 O16        -9.6401    2.0429   61.6799 O.2     1  ZINC000963156778   -0.5000
     17 C17        -7.8131    1.3815   63.0196 C.3     1  ZINC000963156778   -0.1300
     18 C18        -8.7425    1.2064   64.2223 C.3     1  ZINC000963156778   -0.1100
     19 H19        -9.4814    2.0071   64.2543 H       1  ZINC000963156778    0.1300
     20 C20        -7.9313    1.1636   65.5333 C.3     1  ZINC000963156778   -0.1600
     21 C21        -8.2353   -0.2087   66.0937 C.2     1  ZINC000963156778    0.5300
     22 O22        -7.7941   -0.6576   67.1298 O.2     1  ZINC000963156778   -0.4800
     23 N23        -9.0690   -0.8484   65.2642 N.am    1  ZINC000963156778   -0.6900
     24 C24        -9.4226   -0.1444   64.1775 C.2     1  ZINC000963156778    0.5200
     25 O25       -10.1654   -0.5316   63.3012 O.2     1  ZINC000963156778   -0.4500
     26 S26        -8.7030    1.3586   53.5492 S.3     1  ZINC000963156778    0.4500
     27 N27        -9.0817    1.6156   52.0525 N.2     1  ZINC000963156778   -0.2900
     28 N28       -10.3061    1.3071   51.8701 N.2     1  ZINC000963156778   -0.2400
     29 H29       -12.5290   -0.5861   52.5791 H       1  ZINC000963156778    0.0900
     30 H30       -12.9272    0.6562   53.7899 H       1  ZINC000963156778    0.0800
     31 H31       -12.9491    1.0629   52.0571 H       1  ZINC000963156778    0.0800
     32 H32       -11.3445    1.0969   55.8443 H       1  ZINC000963156778    0.1000
     33 H33       -11.2374   -0.5981   55.3116 H       1  ZINC000963156778    0.0700
     34 H34       -10.8080   -0.5602   57.7826 H       1  ZINC000963156778    0.0600
     35 H35        -9.7445   -1.8049   57.0570 H       1  ZINC000963156778    0.0800
     36 H36        -8.5211    2.0311   56.2307 H       1  ZINC000963156778    0.1000
     37 H37       -10.0008    1.9706   57.2374 H       1  ZINC000963156778    0.0500
     38 H38        -7.4198    0.1101   60.7538 H       1  ZINC000963156778    0.4000
     39 H39        -7.0959    0.5612   62.9921 H       1  ZINC000963156778    0.1000
     40 H40        -7.2795    2.3280   63.1075 H       1  ZINC000963156778    0.1200
     41 H41        -6.8657    1.2670   65.3287 H       1  ZINC000963156778    0.1200
     42 H42        -8.2686    1.9412   66.2187 H       1  ZINC000963156778    0.1300
     43 H43        -9.3924   -1.7468   65.4349 H       1  ZINC000963156778    0.4200
@<TRIPOS>BOND
     1     1     2    1
     2     1    29    1
     3     1    30    1
     4     1    31    1
     5     2    28    1
     6     2     3    2
     7     3     4    1
     8     3    26    1
     9     4     5    1
    10     4    32    1
    11     4    33    1
    12     5    11    1
    13     5     6    1
    14     6     7    1
    15     6    34    1
    16     6    35    1
    17     7     8    1
    18     7    12    1
    19     7     9    1
    20     9    10    1
    21     9    11    1
    22     9    12    1
    23    11    36    1
    24    11    37    1
    25    12    13    1
    26    12    14    1
    27    14    15   am
    28    14    38    1
    29    15    16    2
    30    15    17    1
    31    17    18    1
    32    17    39    1
    33    17    40    1
    34    18    19    1
    35    18    24    1
    36    18    20    1
    37    20    21    1
    38    20    41    1
    39    20    42    1
    40    21    22    2
    41    21    23   am
    42    23    24   am
    43    23    43    1
    44    24    25    2
    45    26    27    1
    46    27    28    2
@<TRIPOS>SUBSTRUCTURE
     1 ZINC000963156778        1 TEMP              0 ****  ****    0 ROOT


##########                                Name:    ZINC001220171460
##########                DOCK_Rotatable_Bonds:                  10
##########                         Heavy_Atoms:                  25
##########                    Molecular_Weight:             383.773
##########                DOCK_Rotatable_Bonds:                  10
##########                       Formal_Charge:           0.0199996
##########                     HBond_Acceptors:                  10
##########                        HBond_Donors:                   3
##########                         Heavy_Atoms:                  25
##########                          Grid_Score:          -30.649599
##########                     Grid_vdw_energy:          -27.933870
##########                      Grid_es_energy:           -2.715728
##########           Internal_energy_repulsive:           13.375170

@<TRIPOS>MOLECULE
ZINC001220171460
 43 44 1 0 0
SMALL
USER_CHARGES


@<TRIPOS>ATOM
      1 C1         -5.3676   -0.0414   50.6543 C.3     1  ZINC001220171460    0.0200
      2 O2         -4.6650    1.1051   50.1707 O.3     1  ZINC001220171460   -0.3100
      3 C3         -5.2121    2.3219   50.4361 C.ar    1  ZINC001220171460    0.1000
      4 C4         -6.3706    2.7175   49.7889 C.ar    1  ZINC001220171460   -0.1500
      5 C5         -6.9267    3.9555   50.0593 C.ar    1  ZINC001220171460   -0.0600
      6 Cl6        -8.3795    4.4488   49.2470 Cl      1  ZINC001220171460   -0.0400
      7 C7         -6.3265    4.8018   50.9771 C.ar    1  ZINC001220171460    0.1000
      8 F8         -6.8726    6.0095   51.2386 F       1  ZINC001220171460   -0.1200
      9 C9         -5.1683    4.4118   51.6270 C.ar    1  ZINC001220171460   -0.1200
     10 C10        -4.6107    3.1697   51.3635 C.ar    1  ZINC001220171460    0.1800
     11 N11        -3.4376    2.7727   52.0208 N.am    1  ZINC001220171460   -0.6700
     12 C12        -2.2372    2.9943   51.4496 C.2     1  ZINC001220171460    0.7100
     13 O13        -2.1715    3.5385   50.3643 O.2     1  ZINC001220171460   -0.5700
     14 N14        -1.1095    2.6126   52.0814 N.am    1  ZINC001220171460   -0.7400
     15 C15         0.1953    2.8519   51.4597 C.3     1  ZINC001220171460    0.1400
     16 C16         0.7945    1.5202   51.0031 C.3     1  ZINC001220171460   -0.1400
     17 C17         2.1446    1.7729   50.3290 C.3     1  ZINC001220171460    0.0500
     18 H18         2.7550    2.4122   50.9667 H       1  ZINC001220171460    0.1000
     19 N19         2.8330    0.4928   50.1165 N.3     1  ZINC001220171460   -0.6500
     20 C20         3.4194   -0.0039   51.3685 C.3     1  ZINC001220171460    0.0100
     21 C21         4.8830   -0.4486   51.3355 C.3     1  ZINC001220171460   -0.2000
     22 C22         4.4952    0.8560   52.0347 C.3     1  ZINC001220171460   -0.1600
     23 C23         1.9208    2.4616   48.9812 C.3     1  ZINC001220171460    0.4600
     24 F24         2.9508    2.1115   48.1019 F       1  ZINC001220171460   -0.1800
     25 F25         0.6934    2.0544   48.4475 F       1  ZINC001220171460   -0.1800
     26 F26         1.9133    3.8490   49.1621 F       1  ZINC001220171460   -0.1700
     27 H27        -5.4483    0.0131   51.7399 H       1  ZINC001220171460    0.0600
     28 H28        -6.3656   -0.0672   50.2167 H       1  ZINC001220171460    0.0600
     29 H29        -4.8251   -0.9446   50.3750 H       1  ZINC001220171460    0.1100
     30 H30        -6.8403    2.0596   49.0725 H       1  ZINC001220171460    0.1500
     31 H31        -4.7014    5.0728   52.3422 H       1  ZINC001220171460    0.1800
     32 H32        -3.4900    2.3386   52.8867 H       1  ZINC001220171460    0.4200
     33 H33        -1.1618    2.1796   52.9479 H       1  ZINC001220171460    0.4000
     34 H34         0.0725    3.5092   50.5990 H       1  ZINC001220171460    0.0800
     35 H35         0.8619    3.3212   52.1832 H       1  ZINC001220171460    0.0700
     36 H36         0.9356    0.8702   51.8665 H       1  ZINC001220171460    0.1000
     37 H37         0.1185    1.0416   50.2945 H       1  ZINC001220171460    0.1000
     38 H38         2.2096   -0.1904   49.7132 H       1  ZINC001220171460    0.3600
     39 H39         2.7403   -0.5544   52.0197 H       1  ZINC001220171460    0.1200
     40 H40         5.1671   -1.2917   51.9651 H       1  ZINC001220171460    0.1000
     41 H41         5.4108   -0.3724   50.3848 H       1  ZINC001220171460    0.1000
     42 H42         4.7680    1.7903   51.5439 H       1  ZINC001220171460    0.1000
     43 H43         4.5243    0.8710   53.1242 H       1  ZINC001220171460    0.1000
@<TRIPOS>BOND
     1     1     2    1
     2     1    27    1
     3     1    28    1
     4     1    29    1
     5     2     3    1
     6     3    10   ar
     7     3     4   ar
     8     4     5   ar
     9     4    30    1
    10     5     6    1
    11     5     7   ar
    12     7     8    1
    13     7     9   ar
    14     9    10   ar
    15     9    31    1
    16    10    11    1
    17    11    12   am
    18    11    32    1
    19    12    13    2
    20    12    14   am
    21    14    15    1
    22    14    33    1
    23    15    16    1
    24    15    34    1
    25    15    35    1
    26    16    17    1
    27    16    36    1
    28    16    37    1
    29    17    18    1
    30    17    19    1
    31    17    23    1
    32    19    20    1
    33    19    38    1
    34    20    22    1
    35    20    21    1
    36    20    39    1
    37    21    22    1
    38    21    40    1
    39    21    41    1
    40    22    42    1
    41    22    43    1
    42    23    24    1
    43    23    25    1
    44    23    26    1
@<TRIPOS>SUBSTRUCTURE
     1 ZINC001220171460        1 TEMP              0 ****  ****    0 ROOT


##########                                Name:    ZINC001217683559
##########                DOCK_Rotatable_Bonds:                   3
##########                         Heavy_Atoms:                  25
##########                    Molecular_Weight:             397.234
##########                DOCK_Rotatable_Bonds:                   3
##########                       Formal_Charge:          0.00999987
##########                     HBond_Acceptors:                   7
##########                        HBond_Donors:                   0
##########                         Heavy_Atoms:                  25
##########                          Grid_Score:          -30.644503
##########                     Grid_vdw_energy:          -29.329784
##########                      Grid_es_energy:           -1.314718
##########           Internal_energy_repulsive:           32.105740

@<TRIPOS>MOLECULE
ZINC001217683559
 38 42 1 0 0
SMALL
USER_CHARGES


@<TRIPOS>ATOM
      1 Br1         0.2101    1.4451   44.8647 Br      1  ZINC001217683559    0.0100
      2 C2          2.0585    1.0743   44.7164 C.ar    1  ZINC001217683559   -0.1200
      3 C3          2.6522    0.9475   43.4708 C.ar    1  ZINC001217683559   -0.0500
      4 C4          4.0108    0.6753   43.4101 C.ar    1  ZINC001217683559   -0.1500
      5 C5          4.7285    0.5392   44.5848 C.ar    1  ZINC001217683559    0.1200
      6 N6          4.1391    0.6642   45.7559 N.ar    1  ZINC001217683559   -0.4400
      7 C7          2.8442    0.9304   45.8582 C.ar    1  ZINC001217683559    0.2200
      8 C8          2.2233    1.0625   47.2005 C.2     1  ZINC001217683559    0.2100
      9 N9          2.8321    0.9361   48.3514 N.2     1  ZINC001217683559   -0.3300
     10 O10         2.0496    1.1020   49.2630 O.3     1  ZINC001217683559    0.1000
     11 C11         0.8261    1.3585   48.7742 C.2     1  ZINC001217683559    0.2300
     12 C12        -0.3987    1.6173   49.5586 C.2     1  ZINC001217683559   -0.0600
     13 C13        -1.6247    1.3345   49.0260 C.2     1  ZINC001217683559    0.1800
     14 N14        -2.7541    1.5690   49.7392 N.pl3   1  ZINC001217683559   -0.2900
     15 N15        -4.1164    1.3848   49.4624 N.2     1  ZINC001217683559   -0.3300
     16 C16        -4.7821    1.7853   50.5197 C.2     1  ZINC001217683559    0.2800
     17 C17        -6.2824    1.7647   50.6601 C.3     1  ZINC001217683559   -0.0300
     18 C18        -6.8248    0.4686   51.2854 C.3     1  ZINC001217683559   -0.1200
     19 C19        -7.8151    1.3512   52.0634 C.3     1  ZINC001217683559   -0.1400
     20 C20        -6.7936    2.4913   51.9154 C.3     1  ZINC001217683559   -0.1200
     21 N21        -3.9341    2.2101   51.4460 N.2     1  ZINC001217683559   -0.5300
     22 C22        -2.6888    2.0914   51.0009 C.2     1  ZINC001217683559    0.2900
     23 C23        -1.4375    2.3917   51.5737 C.2     1  ZINC001217683559   -0.1000
     24 C24        -0.3036    2.1530   50.8647 C.2     1  ZINC001217683559   -0.0200
     25 N25         0.9284    1.3407   47.4579 N.2     1  ZINC001217683559   -0.4300
     26 H26         2.0701    1.0579   42.5678 H       1  ZINC001217683559    0.1600
     27 H27         4.5036    0.5702   42.4548 H       1  ZINC001217683559    0.1500
     28 H28         5.7866    0.3271   44.5409 H       1  ZINC001217683559    0.1800
     29 H29        -1.6949    0.9218   48.0305 H       1  ZINC001217683559    0.1900
     30 H30        -6.7972    2.0586   49.7455 H       1  ZINC001217683559    0.1200
     31 H31        -7.3039   -0.1958   50.5663 H       1  ZINC001217683559    0.0700
     32 H32        -6.1037   -0.0442   51.9219 H       1  ZINC001217683559    0.1000
     33 H33        -8.7499    1.5310   51.5325 H       1  ZINC001217683559    0.0800
     34 H34        -7.9672    1.0323   53.0945 H       1  ZINC001217683559    0.0800
     35 H35        -6.0639    2.5314   52.7242 H       1  ZINC001217683559    0.0900
     36 H36        -7.2474    3.4597   51.7050 H       1  ZINC001217683559    0.0700
     37 H37        -1.3798    2.8047   52.5700 H       1  ZINC001217683559    0.1700
     38 H38         0.6626    2.3784   51.2913 H       1  ZINC001217683559    0.1700
@<TRIPOS>BOND
     1     1     2    1
     2     2     7   ar
     3     2     3   ar
     4     3     4   ar
     5     3    26    1
     6     4     5   ar
     7     4    27    1
     8     5     6   ar
     9     5    28    1
    10     6     7   ar
    11     7     8    1
    12     8    25    1
    13     8     9    2
    14     9    10    1
    15    10    11    1
    16    11    12    1
    17    11    25    2
    18    12    24    1
    19    12    13    2
    20    13    14    1
    21    13    29    1
    22    14    22    1
    23    14    15    1
    24    15    16    2
    25    16    17    1
    26    16    21    1
    27    17    20    1
    28    17    18    1
    29    17    30    1
    30    18    19    1
    31    18    31    1
    32    18    32    1
    33    19    20    1
    34    19    33    1
    35    19    34    1
    36    20    35    1
    37    20    36    1
    38    21    22    2
    39    22    23    1
    40    23    24    2
    41    23    37    1
    42    24    38    1
@<TRIPOS>SUBSTRUCTURE
     1 ZINC001217683559        1 TEMP              0 ****  ****    0 ROOT


##########                                Name:    ZINC000797321835
##########                DOCK_Rotatable_Bonds:                   4
##########                         Heavy_Atoms:                  22
##########                    Molecular_Weight:             381.253
##########                DOCK_Rotatable_Bonds:                   4
##########                       Formal_Charge:           0.0200001
##########                     HBond_Acceptors:                   7
##########                        HBond_Donors:                   1
##########                         Heavy_Atoms:                  22
##########                          Grid_Score:          -30.623598
##########                     Grid_vdw_energy:          -29.530891
##########                      Grid_es_energy:           -1.092707
##########           Internal_energy_repulsive:           11.759412

@<TRIPOS>MOLECULE
ZINC000797321835
 35 37 1 0 0
SMALL
USER_CHARGES


@<TRIPOS>ATOM
      1 C1          3.5615    0.5165   52.2593 C.3     1  ZINC000797321835    0.1000
      2 N2          3.6872    1.0406   50.8970 N.am    1  ZINC000797321835   -0.6000
      3 C3          4.5960    0.6163   50.0020 C.2     1  ZINC000797321835    0.5200
      4 O4          5.4257   -0.2437   50.2089 O.2     1  ZINC000797321835   -0.5200
      5 C5          4.4326    1.3670   48.6989 C.3     1  ZINC000797321835   -0.1500
      6 C6          3.0295    2.0084   48.8040 C.3     1  ZINC000797321835   -0.1200
      7 C7          2.8333    2.0921   50.3322 C.3     1  ZINC000797321835    0.1200
      8 H8          3.1522    3.0671   50.7007 H       1  ZINC000797321835    0.1100
      9 C9          1.3889    1.8485   50.6866 C.2     1  ZINC000797321835    0.4900
     10 O10         1.1072    1.2143   51.6812 O.2     1  ZINC000797321835   -0.4400
     11 N11         0.4103    2.3355   49.8982 N.am    1  ZINC000797321835   -0.6500
     12 C12        -0.9265    2.1101   50.2262 C.ar    1  ZINC000797321835    0.3000
     13 C13        -1.5454    2.8876   51.2057 C.ar    1  ZINC000797321835   -0.1400
     14 C14        -2.8722    2.6295   51.4984 C.ar    1  ZINC000797321835   -0.0800
     15 C15        -3.5124    1.6024   50.7922 C.ar    1  ZINC000797321835    0.1100
     16 C16        -4.9288    1.2861   51.0656 C.2     1  ZINC000797321835   -0.1400
     17 C17        -5.6395    0.3120   50.4618 C.2     1  ZINC000797321835   -0.0900
     18 C18        -6.9479    0.2066   50.8841 C.2     1  ZINC000797321835   -0.0900
     19 C19        -7.3115    1.0845   51.8257 C.2     1  ZINC000797321835   -0.2000
     20 Br20       -9.0307    1.1939   52.6056 Br      1  ZINC000797321835    0.0200
     21 S21        -5.9475    2.1167   52.2342 S.3     1  ZINC000797321835    0.1900
     22 N22        -2.8402    0.9147   49.8755 N.ar    1  ZINC000797321835   -0.1900
     23 N23        -1.6102    1.1617   49.6042 N.ar    1  ZINC000797321835   -0.2200
     24 H24         2.8725   -0.3281   52.2615 H       1  ZINC000797321835    0.0700
     25 H25         4.5387    0.1891   52.6143 H       1  ZINC000797321835    0.0800
     26 H26         3.1798    1.2986   52.9157 H       1  ZINC000797321835    0.0700
     27 H27         5.1980    2.1372   48.6038 H       1  ZINC000797321835    0.1100
     28 H28         4.4753    0.6792   47.8543 H       1  ZINC000797321835    0.1100
     29 H29         3.0191    3.0002   48.3518 H       1  ZINC000797321835    0.1100
     30 H30         2.2727    1.3673   48.3521 H       1  ZINC000797321835    0.0900
     31 H31         0.6356    2.8428   49.1028 H       1  ZINC000797321835    0.4200
     32 H32        -1.0042    3.6677   51.7204 H       1  ZINC000797321835    0.1600
     33 H33        -3.3985    3.2016   52.2481 H       1  ZINC000797321835    0.1500
     34 H34        -5.2171   -0.3345   49.7067 H       1  ZINC000797321835    0.1600
     35 H35        -7.6289   -0.5299   50.4840 H       1  ZINC000797321835    0.1600
@<TRIPOS>BOND
     1     1     2    1
     2     1    24    1
     3     1    25    1
     4     1    26    1
     5     2     7    1
     6     2     3   am
     7     3     4    2
     8     3     5    1
     9     5     6    1
    10     5    27    1
    11     5    28    1
    12     6     7    1
    13     6    29    1
    14     6    30    1
    15     7     8    1
    16     7     9    1
    17     9    10    2
    18     9    11   am
    19    11    12    1
    20    11    31    1
    21    12    23   ar
    22    12    13   ar
    23    13    14   ar
    24    13    32    1
    25    14    15   ar
    26    14    33    1
    27    15    16    1
    28    15    22   ar
    29    16    21    1
    30    16    17    2
    31    17    18    1
    32    17    34    1
    33    18    19    2
    34    18    35    1
    35    19    20    1
    36    19    21    1
    37    22    23   ar
@<TRIPOS>SUBSTRUCTURE
     1 ZINC000797321835        1 TEMP              0 ****  ****    0 ROOT


##########                                Name:    ZINC000007167963
##########                DOCK_Rotatable_Bonds:                   8
##########                         Heavy_Atoms:                  25
##########                    Molecular_Weight:             378.433
##########                DOCK_Rotatable_Bonds:                   8
##########                       Formal_Charge:        -1.01328e-06
##########                     HBond_Acceptors:                  10
##########                        HBond_Donors:                   3
##########                         Heavy_Atoms:                  25
##########                          Grid_Score:          -30.617722
##########                     Grid_vdw_energy:          -30.004585
##########                      Grid_es_energy:           -0.613135
##########           Internal_energy_repulsive:            8.127079

@<TRIPOS>MOLECULE
ZINC000007167963
 39 41 1 0 0
SMALL
USER_CHARGES


@<TRIPOS>ATOM
      1 C1          0.8816    3.5364   43.2548 C.3     1  ZINC000007167963   -0.0800
      2 C2          1.5519    2.1879   43.1948 C.2     1  ZINC000007167963    0.0900
      3 C3          1.6743    1.3131   44.2302 C.2     1  ZINC000007167963   -0.1500
      4 C4          1.1847    1.4927   45.6131 C.2     1  ZINC000007167963    0.2600
      5 N5          1.3388    0.6515   46.6064 N.2     1  ZINC000007167963   -0.2700
      6 N6          0.7862    1.1325   47.6639 N.2     1  ZINC000007167963   -0.2800
      7 C7          0.2570    2.3004   47.3880 C.2     1  ZINC000007167963    0.1200
      8 S8         -0.6074    3.3454   48.5128 S.3     1  ZINC000007167963    0.1500
      9 C9         -0.9475    2.1641   49.8414 C.3     1  ZINC000007167963   -0.1200
     10 H10        -0.3454    1.2676   49.6934 H       1  ZINC000007167963    0.1400
     11 C11        -0.5966    2.7974   51.1892 C.3     1  ZINC000007167963   -0.1500
     12 C12        -2.4088    1.7961   49.8245 C.2     1  ZINC000007167963    0.5300
     13 O13        -2.9892    1.6661   48.7675 O.2     1  ZINC000007167963   -0.4900
     14 N14        -3.0707    1.6116   50.9840 N.am    1  ZINC000007167963   -0.6100
     15 C15        -4.4148    1.2714   50.9683 C.2     1  ZINC000007167963    0.0800
     16 C16        -5.4334    2.1015   51.3587 C.2     1  ZINC000007167963   -0.2400
     17 C17        -5.2245    3.4682   51.8467 C.2     1  ZINC000007167963    0.5900
     18 N18        -5.6182    4.5183   51.0992 N.am    1  ZINC000007167963   -0.8400
     19 O19        -4.6955    3.6544   52.9269 O.2     1  ZINC000007167963   -0.5600
     20 C20        -6.7366    1.4856   51.2368 C.2     1  ZINC000007167963   -0.0900
     21 C21        -6.6855    0.2449   50.7734 C.2     1  ZINC000007167963   -0.2800
     22 S22        -5.0278   -0.2337   50.4544 S.3     1  ZINC000007167963    0.3000
     23 O23         0.5008    2.5571   46.0878 O.3     1  ZINC000007167963   -0.2000
     24 C24         2.3932    0.1529   43.6876 C.2     1  ZINC000007167963   -0.1800
     25 C25         2.6317    0.4354   42.3965 C.2     1  ZINC000007167963   -0.0300
     26 O26         2.1238    1.6439   42.1111 O.3     1  ZINC000007167963   -0.1700
     27 H27         0.9313    4.0107   42.2747 H       1  ZINC000007167963    0.0800
     28 H28        -0.1614    3.4111   43.5453 H       1  ZINC000007167963    0.1000
     29 H29         1.3903    4.1626   43.9878 H       1  ZINC000007167963    0.1000
     30 H30         0.4603    3.0636   51.2014 H       1  ZINC000007167963    0.0900
     31 H31        -1.1987    3.6938   51.3371 H       1  ZINC000007167963    0.0800
     32 H32        -0.8013    2.0860   51.9892 H       1  ZINC000007167963    0.0800
     33 H33        -2.6067    1.7168   51.8293 H       1  ZINC000007167963    0.4400
     34 H34        -5.4788    5.4225   51.4218 H       1  ZINC000007167963    0.4000
     35 H35        -6.0409    4.3700   50.2389 H       1  ZINC000007167963    0.4100
     36 H36        -7.6575    1.9857   51.4977 H       1  ZINC000007167963    0.1500
     37 H37        -7.5477   -0.3848   50.6106 H       1  ZINC000007167963    0.1700
     38 H38         2.6735   -0.7445   44.2191 H       1  ZINC000007167963    0.1600
     39 H39         3.1461   -0.2089   41.6988 H       1  ZINC000007167963    0.2200
@<TRIPOS>BOND
     1     1     2    1
     2     1    27    1
     3     1    28    1
     4     1    29    1
     5     2    26    1
     6     2     3    2
     7     3     4    1
     8     3    24    1
     9     4    23    1
    10     4     5    2
    11     5     6    1
    12     6     7    2
    13     7     8    1
    14     7    23    1
    15     8     9    1
    16     9    10    1
    17     9    11    1
    18     9    12    1
    19    11    30    1
    20    11    31    1
    21    11    32    1
    22    12    13    2
    23    12    14   am
    24    14    15    1
    25    14    33    1
    26    15    22    1
    27    15    16    2
    28    16    17    1
    29    16    20    1
    30    17    18   am
    31    17    19    2
    32    18    34    1
    33    18    35    1
    34    20    21    2
    35    20    36    1
    36    21    22    1
    37    21    37    1
    38    24    25    2
    39    24    38    1
    40    25    26    1
    41    25    39    1
@<TRIPOS>SUBSTRUCTURE
     1 ZINC000007167963        1 TEMP              0 ****  ****    0 ROOT


##########                                Name:    ZINC001327099466
##########                DOCK_Rotatable_Bonds:                   7
##########                         Heavy_Atoms:                  27
##########                    Molecular_Weight:             374.483
##########                DOCK_Rotatable_Bonds:                   7
##########                       Formal_Charge:           0.0199998
##########                     HBond_Acceptors:                   7
##########                        HBond_Donors:                   1
##########                         Heavy_Atoms:                  27
##########                          Grid_Score:          -30.611540
##########                     Grid_vdw_energy:          -30.667124
##########                      Grid_es_energy:            0.055584
##########           Internal_energy_repulsive:           17.795975

@<TRIPOS>MOLECULE
ZINC001327099466
 57 60 1 0 0
SMALL
USER_CHARGES


@<TRIPOS>ATOM
      1 O1         -2.3801    2.2733   48.7116 O.2     1  ZINC001327099466   -0.4800
      2 C2         -1.8641    1.3164   49.2514 C.2     1  ZINC001327099466    0.5300
      3 N3         -2.5790    0.5580   50.1060 N.am    1  ZINC001327099466   -0.6000
      4 C4         -3.9144    0.8772   50.3753 C.2     1  ZINC001327099466    0.2900
      5 N5         -4.3651    2.0490   50.7586 N.2     1  ZINC001327099466   -0.3100
      6 N6         -5.7532    1.9516   50.9197 N.pl3   1  ZINC001327099466   -0.3500
      7 C7         -6.6489    3.0329   51.3379 C.3     1  ZINC001327099466    0.1700
      8 C8         -7.2335    3.7179   50.1010 C.3     1  ZINC001327099466   -0.1300
      9 C9         -8.1690    4.8471   50.5378 C.3     1  ZINC001327099466   -0.1200
     10 C10        -9.3043    4.2698   51.3855 C.3     1  ZINC001327099466   -0.1300
     11 C11        -8.7196    3.5847   52.6223 C.3     1  ZINC001327099466   -0.1200
     12 C12        -7.7842    2.4555   52.1856 C.3     1  ZINC001327099466   -0.1300
     13 C13        -6.1213    0.6876   50.6217 C.2     1  ZINC001327099466    0.0700
     14 C14        -5.0083    0.0015   50.2769 C.2     1  ZINC001327099466   -0.2700
     15 C15        -0.4387    0.9757   48.9639 C.2     1  ZINC001327099466    0.5100
     16 O16        -0.1727    0.0322   48.2483 O.2     1  ZINC001327099466   -0.5100
     17 N17         0.5523    1.7158   49.4992 N.am    1  ZINC001327099466   -0.5700
     18 C18         1.9593    1.3929   49.2256 C.3     1  ZINC001327099466    0.0400
     19 C19         2.6994    1.2442   50.5586 C.3     1  ZINC001327099466   -0.1300
     20 C20         2.4960    2.5100   51.3944 C.3     1  ZINC001327099466   -0.1200
     21 C21         1.0056    2.6959   51.6875 C.3     1  ZINC001327099466    0.0800
     22 H22         0.6274    1.8218   52.2178 H       1  ZINC001327099466    0.0700
     23 O23         0.8197    3.8606   52.4943 O.3     1  ZINC001327099466   -0.3500
     24 C24        -0.5001    4.4051   52.4337 C.3     1  ZINC001327099466    0.0600
     25 C25        -1.5569    3.5387   53.1391 C.3     1  ZINC001327099466   -0.1600
     26 C26        -1.2333    4.3261   54.4199 C.3     1  ZINC001327099466   -0.1400
     27 C27        -0.7753    5.4738   53.5046 C.3     1  ZINC001327099466   -0.1400
     28 C28         0.2461    2.8644   50.3628 C.3     1  ZINC001327099466    0.0900
     29 H29        -2.1678   -0.2090   50.5342 H       1  ZINC001327099466    0.4300
     30 H30        -6.0900    3.7606   51.9262 H       1  ZINC001327099466    0.1000
     31 H31        -6.4247    4.1292   49.4971 H       1  ZINC001327099466    0.0700
     32 H32        -7.7924    2.9901   49.5127 H       1  ZINC001327099466    0.0700
     33 H33        -7.6101    5.5748   51.1261 H       1  ZINC001327099466    0.0700
     34 H34        -8.5855    5.3351   49.6566 H       1  ZINC001327099466    0.0700
     35 H35        -9.9707    5.0741   51.6967 H       1  ZINC001327099466    0.0700
     36 H36        -9.8632    3.5419   50.7971 H       1  ZINC001327099466    0.0700
     37 H37        -8.1608    4.3124   53.2107 H       1  ZINC001327099466    0.0700
     38 H38        -9.5285    3.1733   53.2263 H       1  ZINC001327099466    0.0700
     39 H39        -8.3430    1.7277   51.5973 H       1  ZINC001327099466    0.0700
     40 H40        -7.3676    1.9674   53.0668 H       1  ZINC001327099466    0.0700
     41 H41        -7.1270    0.2949   50.6498 H       1  ZINC001327099466    0.1800
     42 H42        -4.9669   -1.0371   49.9835 H       1  ZINC001327099466    0.1700
     43 H43         2.0180    0.4578   48.6687 H       1  ZINC001327099466    0.1600
     44 H44         2.4120    2.1959   48.6439 H       1  ZINC001327099466    0.0700
     45 H45         2.3053    0.3839   51.0995 H       1  ZINC001327099466    0.0700
     46 H46         3.7631    1.0998   50.3699 H       1  ZINC001327099466    0.0900
     47 H47         3.0420    2.4168   52.3331 H       1  ZINC001327099466    0.0800
     48 H48         2.8680    3.3733   50.8424 H       1  ZINC001327099466    0.0800
     49 H49        -0.7858    4.7115   51.4274 H       1  ZINC001327099466    0.0700
     50 H50        -2.5701    3.7003   52.7715 H       1  ZINC001327099466    0.0900
     51 H51        -1.2893    2.4836   53.1960 H       1  ZINC001327099466    0.0700
     52 H52        -2.1123    4.5682   55.0173 H       1  ZINC001327099466    0.0700
     53 H53        -0.4270    3.8891   55.0091 H       1  ZINC001327099466    0.0800
     54 H54         0.1232    5.9808   53.8565 H       1  ZINC001327099466    0.0800
     55 H55        -1.5749    6.1644   53.2369 H       1  ZINC001327099466    0.0900
     56 H56         0.5603    3.7879   49.8765 H       1  ZINC001327099466    0.0900
     57 H57        -0.8258    2.8980   50.5577 H       1  ZINC001327099466    0.1000
@<TRIPOS>BOND
     1     1     2    2
     2     2     3   am
     3     2    15    1
     4     3     4    1
     5     3    29    1
     6     4    14    1
     7     4     5    2
     8     5     6    1
     9     6     7    1
    10     6    13    1
    11     7    12    1
    12     7     8    1
    13     7    30    1
    14     8     9    1
    15     8    31    1
    16     8    32    1
    17     9    10    1
    18     9    33    1
    19     9    34    1
    20    10    11    1
    21    10    35    1
    22    10    36    1
    23    11    12    1
    24    11    37    1
    25    11    38    1
    26    12    39    1
    27    12    40    1
    28    13    14    2
    29    13    41    1
    30    14    42    1
    31    15    16    2
    32    15    17   am
    33    17    28    1
    34    17    18    1
    35    18    19    1
    36    18    43    1
    37    18    44    1
    38    19    20    1
    39    19    45    1
    40    19    46    1
    41    20    21    1
    42    20    47    1
    43    20    48    1
    44    21    22    1
    45    21    23    1
    46    21    28    1
    47    23    24    1
    48    24    27    1
    49    24    25    1
    50    24    49    1
    51    25    26    1
    52    25    50    1
    53    25    51    1
    54    26    27    1
    55    26    52    1
    56    26    53    1
    57    27    54    1
    58    27    55    1
    59    28    56    1
    60    28    57    1
@<TRIPOS>SUBSTRUCTURE
     1 ZINC001327099466        1 TEMP              0 ****  ****    0 ROOT


##########                                Name:    ZINC000010935976
##########                DOCK_Rotatable_Bonds:                   3
##########                         Heavy_Atoms:                  26
##########                    Molecular_Weight:             391.558
##########                DOCK_Rotatable_Bonds:                   3
##########                       Formal_Charge:         -0.00999979
##########                     HBond_Acceptors:                   7
##########                        HBond_Donors:                   1
##########                         Heavy_Atoms:                  26
##########                          Grid_Score:          -30.591959
##########                     Grid_vdw_energy:          -31.523144
##########                      Grid_es_energy:            0.931185
##########           Internal_energy_repulsive:          126.139725

@<TRIPOS>MOLECULE
ZINC000010935976
 51 54 1 0 0
SMALL
USER_CHARGES


@<TRIPOS>ATOM
      1 C1         -7.2870    1.1523   51.7048 C.3     1  ZINC000010935976   -0.0800
      2 C2         -5.8264    1.3128   51.3703 C.2     1  ZINC000010935976   -0.2100
      3 C3         -5.0192    2.1750   51.9570 C.2     1  ZINC000010935976   -0.0400
      4 C4         -5.4817    3.1089   53.0457 C.3     1  ZINC000010935976   -0.1000
      5 C5         -3.6511    2.1548   51.4736 C.2     1  ZINC000010935976   -0.2300
      6 C6         -3.4650    1.2093   50.4675 C.2     1  ZINC000010935976    0.0900
      7 N7         -2.2478    1.0614   49.9078 N.2     1  ZINC000010935976   -0.4900
      8 C8         -1.2245    1.7887   50.2867 C.2     1  ZINC000010935976    0.3400
      9 S9          0.3388    1.5434   49.5118 S.3     1  ZINC000010935976    0.0500
     10 C10        -0.2028    0.9126   47.9040 C.3     1  ZINC000010935976   -0.1000
     11 H11        -0.9834    0.1656   48.0478 H       1  ZINC000010935976    0.1400
     12 C12         0.9845    0.2816   47.1727 C.3     1  ZINC000010935976   -0.1000
     13 C13         2.2662    1.0353   47.4779 C.3     1  ZINC000010935976   -0.1300
     14 C14         2.2944    2.4471   46.9214 C.3     1  ZINC000010935976   -0.1400
     15 C15         1.2628    3.3311   47.6248 C.3     1  ZINC000010935976    0.0700
     16 N16        -0.0314    3.1810   46.9399 N.am    1  ZINC000010935976   -0.7200
     17 C17        -0.7385    2.0532   47.0643 C.2     1  ZINC000010935976    0.5400
     18 O18        -1.8059    1.9435   46.4991 O.2     1  ZINC000010935976   -0.5200
     19 N19        -1.3416    2.7314   51.2667 N.am    1  ZINC000010935976   -0.5100
     20 C20        -0.1736    3.5233   51.6603 C.3     1  ZINC000010935976    0.1200
     21 C21        -0.3046    4.9626   51.1205 C.3     1  ZINC000010935976   -0.1300
     22 C22        -0.9057    5.7592   52.3050 C.3     1  ZINC000010935976   -0.1300
     23 C23        -0.1948    5.1359   53.5319 C.3     1  ZINC000010935976   -0.1100
     24 C24        -0.1038    3.6336   53.1935 C.3     1  ZINC000010935976   -0.1200
     25 C25        -2.5268    2.9376   51.8730 C.2     1  ZINC000010935976    0.5600
     26 O26        -2.6368    3.7781   52.7491 O.2     1  ZINC000010935976   -0.5000
     27 S27        -4.9804    0.3720   50.1566 S.3     1  ZINC000010935976    0.2100
     28 H28        -7.7193    0.3713   51.0793 H       1  ZINC000010935976    0.0700
     29 H29        -7.3913    0.8766   52.7542 H       1  ZINC000010935976    0.0800
     30 H30        -7.8069    2.0929   51.5228 H       1  ZINC000010935976    0.0800
     31 H31        -5.3538    2.6280   54.0155 H       1  ZINC000010935976    0.0700
     32 H32        -4.8917    4.0247   53.0136 H       1  ZINC000010935976    0.0800
     33 H33        -6.5342    3.3492   52.8953 H       1  ZINC000010935976    0.0700
     34 H34         1.0929   -0.7550   47.4920 H       1  ZINC000010935976    0.0900
     35 H35         0.7997    0.3080   46.0987 H       1  ZINC000010935976    0.0900
     36 H36         2.3913    1.0851   48.5595 H       1  ZINC000010935976    0.0700
     37 H37         3.1049    0.4794   47.0589 H       1  ZINC000010935976    0.0800
     38 H38         3.2881    2.8702   47.0675 H       1  ZINC000010935976    0.0800
     39 H39         2.0721    2.4163   45.8547 H       1  ZINC000010935976    0.0700
     40 H40         1.1641    3.0212   48.6652 H       1  ZINC000010935976    0.1100
     41 H41         1.5819    4.3724   47.5796 H       1  ZINC000010935976    0.0900
     42 H42        -0.3758    3.9066   46.3960 H       1  ZINC000010935976    0.4000
     43 H43         0.7365    3.0616   51.2773 H       1  ZINC000010935976    0.1000
     44 H44         0.6742    5.3596   50.8513 H       1  ZINC000010935976    0.0800
     45 H45        -0.9769    4.9886   50.2630 H       1  ZINC000010935976    0.0700
     46 H46        -0.6675    6.8193   52.2179 H       1  ZINC000010935976    0.0600
     47 H47        -1.9834    5.6080   52.3650 H       1  ZINC000010935976    0.1100
     48 H48         0.8017    5.5609   53.6521 H       1  ZINC000010935976    0.0600
     49 H49        -0.7870    5.2885   54.4341 H       1  ZINC000010935976    0.0700
     50 H50        -0.9390    3.0979   53.6447 H       1  ZINC000010935976    0.0800
     51 H51         0.8405    3.2260   53.5544 H       1  ZINC000010935976    0.0700
@<TRIPOS>BOND
     1     1     2    1
     2     1    28    1
     3     1    29    1
     4     1    30    1
     5     2    27    1
     6     2     3    2
     7     3     4    1
     8     3     5    1
     9     4    31    1
    10     4    32    1
    11     4    33    1
    12     5    25    1
    13     5     6    2
    14     6     7    1
    15     6    27    1
    16     7     8    2
    17     8     9    1
    18     8    19    1
    19     9    10    1
    20    10    11    1
    21    10    17    1
    22    10    12    1
    23    12    13    1
    24    12    34    1
    25    12    35    1
    26    13    14    1
    27    13    36    1
    28    13    37    1
    29    14    15    1
    30    14    38    1
    31    14    39    1
    32    15    16    1
    33    15    40    1
    34    15    41    1
    35    16    17   am
    36    16    42    1
    37    17    18    2
    38    19    20    1
    39    19    25   am
    40    20    24    1
    41    20    21    1
    42    20    43    1
    43    21    22    1
    44    21    44    1
    45    21    45    1
    46    22    23    1
    47    22    46    1
    48    22    47    1
    49    23    24    1
    50    23    48    1
    51    23    49    1
    52    24    50    1
    53    24    51    1
    54    25    26    2
@<TRIPOS>SUBSTRUCTURE
     1 ZINC000010935976        1 TEMP              0 ****  ****    0 ROOT


##########                                Name:    ZINC000986832075
##########                DOCK_Rotatable_Bonds:                   7
##########                         Heavy_Atoms:                  25
##########                    Molecular_Weight:             347.433
##########                DOCK_Rotatable_Bonds:                   7
##########                       Formal_Charge:          -0.0200006
##########                     HBond_Acceptors:                   6
##########                        HBond_Donors:                   1
##########                         Heavy_Atoms:                  25
##########                          Grid_Score:          -30.587259
##########                     Grid_vdw_energy:          -29.950827
##########                      Grid_es_energy:           -0.636433
##########           Internal_energy_repulsive:           28.328211

@<TRIPOS>MOLECULE
ZINC000986832075
 51 53 1 0 0
SMALL
USER_CHARGES


@<TRIPOS>ATOM
      1 C1         -8.1302    3.4000   58.7837 C.3     1  ZINC000986832075   -0.1700
      2 C2         -7.7648    2.3843   57.6994 C.3     1  ZINC000986832075    0.1500
      3 H3         -6.8049    1.9268   57.9387 H       1  ZINC000986832075    0.0900
      4 N4         -8.7974    1.3471   57.6339 N.am    1  ZINC000986832075   -0.7200
      5 C5         -8.5539    0.1212   58.1381 C.2     1  ZINC000986832075    0.5600
      6 O6         -7.4784   -0.1236   58.6482 O.2     1  ZINC000986832075   -0.5100
      7 C7         -9.5964   -0.9272   58.0704 C.ar    1  ZINC000986832075   -0.1300
      8 C8        -10.8868   -0.6301   57.6201 C.ar    1  ZINC000986832075   -0.1100
      9 C9        -11.8289   -1.6387   57.5730 C.ar    1  ZINC000986832075    0.0900
     10 N10       -11.5273   -2.8669   57.9451 N.ar    1  ZINC000986832075   -0.4400
     11 C11       -10.3255   -3.1927   58.3758 C.ar    1  ZINC000986832075    0.0700
     12 C12        -9.3170   -2.2463   58.4501 C.ar    1  ZINC000986832075    0.1100
     13 F13        -8.0870   -2.5874   58.8927 F       1  ZINC000986832075   -0.1000
     14 C14        -7.6685    3.0941   56.3473 C.3     1  ZINC000986832075   -0.1000
     15 C15        -6.2584    2.9191   55.7790 C.3     1  ZINC000986832075   -0.1300
     16 C16        -6.1554    3.6599   54.4420 C.3     1  ZINC000986832075    0.1100
     17 N17        -7.2265    3.1859   53.5552 N.am    1  ZINC000986832075   -0.6100
     18 C18        -6.9424    2.7235   52.3215 C.2     1  ZINC000986832075    0.5200
     19 O19        -7.8355    2.3351   51.5989 O.2     1  ZINC000986832075   -0.5300
     20 C20        -5.5148    2.6892   51.8400 C.3     1  ZINC000986832075   -0.0800
     21 H21        -4.8800    2.2600   52.6153 H       1  ZINC000986832075    0.0900
     22 C22        -5.0474    4.1124   51.5282 C.3     1  ZINC000986832075   -0.1400
     23 C23        -5.4236    1.8338   50.5748 C.3     1  ZINC000986832075   -0.1400
     24 C24        -4.1582    0.9966   50.3777 C.3     1  ZINC000986832075   -0.1800
     25 C25        -5.4776    0.3141   50.7442 C.3     1  ZINC000986832075   -0.1700
     26 C26        -8.6134    3.2252   54.0388 C.3     1  ZINC000986832075    0.1000
     27 C27        -8.6888    2.4893   55.3802 C.3     1  ZINC000986832075   -0.1300
     28 H28        -8.1987    2.8944   59.7469 H       1  ZINC000986832075    0.0600
     29 H29        -7.3619    4.1717   58.8323 H       1  ZINC000986832075    0.0700
     30 H30        -9.0901    3.8576   58.5443 H       1  ZINC000986832075    0.0600
     31 H31        -9.6563    1.5427   57.2278 H       1  ZINC000986832075    0.4000
     32 H32       -11.1427    0.3734   57.3139 H       1  ZINC000986832075    0.1500
     33 H33       -12.8277   -1.4179   57.2265 H       1  ZINC000986832075    0.1700
     34 H34       -10.1231   -4.2117   58.6708 H       1  ZINC000986832075    0.1800
     35 H35        -7.8777    4.1557   56.4787 H       1  ZINC000986832075    0.0800
     36 H36        -5.5305    3.3290   56.4791 H       1  ZINC000986832075    0.0700
     37 H37        -6.0576    1.8590   55.6240 H       1  ZINC000986832075    0.0800
     38 H38        -6.2662    4.7313   54.6085 H       1  ZINC000986832075    0.0700
     39 H39        -5.1866    3.4571   53.9856 H       1  ZINC000986832075    0.0900
     40 H40        -5.7344    4.5730   50.8183 H       1  ZINC000986832075    0.0600
     41 H41        -5.0279    4.6980   52.4472 H       1  ZINC000986832075    0.0600
     42 H42        -4.0468    4.0798   51.0967 H       1  ZINC000986832075    0.0700
     43 H43        -5.8903    2.2580   49.6858 H       1  ZINC000986832075    0.1100
     44 H44        -3.7921    0.8701   49.3588 H       1  ZINC000986832075    0.1000
     45 H45        -3.3906    1.0553   51.1493 H       1  ZINC000986832075    0.0900
     46 H46        -5.5780   -0.0762   51.7569 H       1  ZINC000986832075    0.0900
     47 H47        -5.9795   -0.2614   49.9663 H       1  ZINC000986832075    0.1000
     48 H48        -8.9246    4.2612   54.1724 H       1  ZINC000986832075    0.0700
     49 H49        -9.2664    2.7356   53.3162 H       1  ZINC000986832075    0.0900
     50 H50        -8.4651    1.4333   55.2289 H       1  ZINC000986832075    0.0800
     51 H51        -9.6908    2.5934   55.7965 H       1  ZINC000986832075    0.0800
@<TRIPOS>BOND
     1     1     2    1
     2     1    28    1
     3     1    29    1
     4     1    30    1
     5     2     3    1
     6     2     4    1
     7     2    14    1
     8     4     5   am
     9     4    31    1
    10     5     6    2
    11     5     7    1
    12     7    12   ar
    13     7     8   ar
    14     8     9   ar
    15     8    32    1
    16     9    10   ar
    17     9    33    1
    18    10    11   ar
    19    11    12   ar
    20    11    34    1
    21    12    13    1
    22    14    27    1
    23    14    15    1
    24    14    35    1
    25    15    16    1
    26    15    36    1
    27    15    37    1
    28    16    17    1
    29    16    38    1
    30    16    39    1
    31    17    18   am
    32    17    26    1
    33    18    19    2
    34    18    20    1
    35    20    21    1
    36    20    22    1
    37    20    23    1
    38    22    40    1
    39    22    41    1
    40    22    42    1
    41    23    25    1
    42    23    24    1
    43    23    43    1
    44    24    25    1
    45    24    44    1
    46    24    45    1
    47    25    46    1
    48    25    47    1
    49    26    27    1
    50    26    48    1
    51    26    49    1
    52    27    50    1
    53    27    51    1
@<TRIPOS>SUBSTRUCTURE
     1 ZINC000986832075        1 TEMP              0 ****  ****    0 ROOT


##########                                Name:    ZINC001181473921
##########                DOCK_Rotatable_Bonds:                   9
##########                         Heavy_Atoms:                  24
##########                    Molecular_Weight:             357.431
##########                DOCK_Rotatable_Bonds:                   9
##########                       Formal_Charge:        -5.96046e-08
##########                     HBond_Acceptors:                   9
##########                        HBond_Donors:                   4
##########                         Heavy_Atoms:                  24
##########                          Grid_Score:          -30.573488
##########                     Grid_vdw_energy:          -29.034185
##########                      Grid_es_energy:           -1.539303
##########           Internal_energy_repulsive:           13.184943

@<TRIPOS>MOLECULE
ZINC001181473921
 47 48 1 0 0
SMALL
USER_CHARGES


@<TRIPOS>ATOM
      1 C1         -2.4582    3.4803   52.1437 C.3     1  ZINC001181473921   -0.1300
      2 C2         -3.7063    2.7024   51.8152 C.2     1  ZINC001181473921    0.1900
      3 C3         -4.8858    3.0761   52.3558 C.2     1  ZINC001181473921   -0.2400
      4 C4         -6.0563    2.3528   52.0517 C.2     1  ZINC001181473921    0.2500
      5 O5         -7.2471    2.7156   52.5857 O.3     1  ZINC001181473921   -0.4600
      6 C6         -5.9706    1.2674   51.1996 C.2     1  ZINC001181473921   -0.3700
      7 C7         -4.7253    0.9185   50.6640 C.2     1  ZINC001181473921    0.5300
      8 O8         -4.6328   -0.0373   49.9095 O.2     1  ZINC001181473921   -0.5500
      9 N9         -3.6307    1.6376   50.9744 N.am    1  ZINC001181473921   -0.5000
     10 C10        -2.3349    1.2595   50.4050 C.3     1  ZINC001181473921    0.1000
     11 C11        -2.1993    1.8586   49.0038 C.3     1  ZINC001181473921   -0.1600
     12 C12        -1.0057    1.2524   48.3116 C.2     1  ZINC001181473921    0.5200
     13 O13        -0.2979    0.4642   48.9021 O.2     1  ZINC001181473921   -0.5300
     14 N14        -0.7248    1.5861   47.0364 N.am    1  ZINC001181473921   -0.7200
     15 C15         0.4366    0.9981   46.3641 C.3     1  ZINC001181473921    0.1400
     16 H16         0.5499   -0.0507   46.6387 H       1  ZINC001181473921    0.1000
     17 C17         1.7234    1.7943   46.6948 C.3     1  ZINC001181473921   -0.1300
     18 C18         2.6704    1.4889   45.5159 C.3     1  ZINC001181473921   -0.1500
     19 C19         1.7786    1.0845   44.3289 C.3     1  ZINC001181473921   -0.0800
     20 H20         2.0145    0.0680   44.0139 H       1  ZINC001181473921    0.0900
     21 C21         1.9847    2.0549   43.1641 C.3     1  ZINC001181473921   -0.6200
     22 S22         3.4796    1.5906   42.2475 S.o2    1  ZINC001181473921    2.6100
     23 N23         3.1072    0.1298   41.5622 N.am    1  ZINC001181473921   -1.2500
     24 O24         3.6745    2.4582   41.1391 O.2     1  ZINC001181473921   -0.9600
     25 O25         4.5426    1.2965   43.1434 O.2     1  ZINC001181473921   -0.9600
     26 C26         0.3183    1.1537   44.8276 C.3     1  ZINC001181473921   -0.1200
     27 H27        -1.9869    3.8179   51.2207 H       1  ZINC001181473921    0.0900
     28 H28        -2.7188    4.3439   52.7556 H       1  ZINC001181473921    0.1000
     29 H29        -1.7660    2.8419   52.6927 H       1  ZINC001181473921    0.0900
     30 H30        -4.9320    3.9269   53.0195 H       1  ZINC001181473921    0.1500
     31 H31        -7.3874    2.3961   53.4875 H       1  ZINC001181473921    0.4100
     32 H32        -6.8527    0.6961   50.9508 H       1  ZINC001181473921    0.1500
     33 H33        -1.5344    1.6377   51.0409 H       1  ZINC001181473921    0.1000
     34 H34        -2.2679    0.1733   50.3438 H       1  ZINC001181473921    0.1100
     35 H35        -3.1001    1.6449   48.4285 H       1  ZINC001181473921    0.1100
     36 H36        -2.0650    2.9375   49.0813 H       1  ZINC001181473921    0.1000
     37 H37        -1.2915    2.2156   46.5637 H       1  ZINC001181473921    0.4000
     38 H38         1.5092    2.8618   46.7454 H       1  ZINC001181473921    0.0700
     39 H39         2.1570    1.4464   47.6324 H       1  ZINC001181473921    0.0800
     40 H40         3.2494    2.3769   45.2624 H       1  ZINC001181473921    0.0900
     41 H41         3.3392    0.6687   45.7769 H       1  ZINC001181473921    0.0800
     42 H42         1.1224    2.0120   42.4986 H       1  ZINC001181473921    0.1400
     43 H43         2.0955    3.0681   43.5505 H       1  ZINC001181473921    0.1400
     44 H44         2.3603    0.0588   40.9474 H       1  ZINC001181473921    0.4100
     45 H45         3.6359   -0.6550   41.7756 H       1  ZINC001181473921    0.4200
     46 H46        -0.2694    0.3409   44.4011 H       1  ZINC001181473921    0.0800
     47 H47        -0.1248    2.1178   44.5781 H       1  ZINC001181473921    0.0800
@<TRIPOS>BOND
     1     1     2    1
     2     1    27    1
     3     1    28    1
     4     1    29    1
     5     2     9    1
     6     2     3    2
     7     3     4    1
     8     3    30    1
     9     4     5    1
    10     4     6    2
    11     5    31    1
    12     6     7    1
    13     6    32    1
    14     7     8    2
    15     7     9   am
    16     9    10    1
    17    10    11    1
    18    10    33    1
    19    10    34    1
    20    11    12    1
    21    11    35    1
    22    11    36    1
    23    12    13    2
    24    12    14   am
    25    14    15    1
    26    14    37    1
    27    15    16    1
    28    15    26    1
    29    15    17    1
    30    17    18    1
    31    17    38    1
    32    17    39    1
    33    18    19    1
    34    18    40    1
    35    18    41    1
    36    19    20    1
    37    19    21    1
    38    19    26    1
    39    21    22    1
    40    21    42    1
    41    21    43    1
    42    22    23   am
    43    22    24    2
    44    22    25    2
    45    23    44    1
    46    23    45    1
    47    26    46    1
    48    26    47    1
@<TRIPOS>SUBSTRUCTURE
     1 ZINC001181473921        1 TEMP              0 ****  ****    0 ROOT


##########                                Name:    ZINC000286156371
##########                DOCK_Rotatable_Bonds:                   7
##########                         Heavy_Atoms:                  25
##########                    Molecular_Weight:             350.418
##########                DOCK_Rotatable_Bonds:                   7
##########                       Formal_Charge:          0.00999908
##########                     HBond_Acceptors:                   8
##########                        HBond_Donors:                   2
##########                         Heavy_Atoms:                  25
##########                          Grid_Score:          -30.551884
##########                     Grid_vdw_energy:          -29.554684
##########                      Grid_es_energy:           -0.997201
##########           Internal_energy_repulsive:           23.101385

@<TRIPOS>MOLECULE
ZINC000286156371
 51 53 1 0 0
SMALL
USER_CHARGES


@<TRIPOS>ATOM
      1 C1         -0.5770    2.4145   46.2008 C.3     1  <0>        -0.1800
      2 C2          0.6018    1.5680   46.6856 C.3     1  <0>         0.1400
      3 C3          0.0754    0.3418   47.4340 C.3     1  <0>        -0.1800
      4 C4          1.4321    1.1141   45.4833 C.3     1  <0>        -0.1400
      5 O5          1.4318    2.3592   47.5762 O.3     1  <0>        -0.3600
      6 C6          2.2660    1.6874   48.3921 C.2     1  <0>         0.6800
      7 O7          2.8879    0.7318   47.9719 O.2     1  <0>        -0.5600
      8 N8          2.4112    2.0748   49.6747 N.am    1  <0>        -0.5800
      9 C9          3.2863    1.4326   50.6724 C.3     1  <0>         0.0700
     10 C10         3.5807    2.5411   51.7137 C.3     1  <0>         0.0900
     11 H11         3.8305    2.1100   52.6831 H       1  <0>         0.0900
     12 O12         4.6211    3.4084   51.2583 O.3     1  <0>        -0.5500
     13 C13         2.2201    3.2850   51.7698 C.3     1  <0>        -0.1200
     14 C14         1.7280    3.2117   50.3090 C.3     1  <0>         0.1500
     15 H15         1.9748    4.1366   49.7879 H       1  <0>         0.1100
     16 C16         0.2377    2.9897   50.2809 C.2     1  <0>         0.5200
     17 O17        -0.4377    3.5154   49.4215 O.2     1  <0>        -0.4900
     18 N18        -0.3447    2.2069   51.2108 N.am    1  <0>        -0.6300
     19 C19        -1.7305    1.9991   51.1838 C.2     1  <0>         0.3000
     20 N20        -2.3490    0.9975   50.6001 N.2     1  <0>        -0.3200
     21 N21        -3.7214    1.1566   50.8045 N.pl3   1  <0>        -0.3600
     22 C22        -4.7999    0.2804   50.3370 C.3     1  <0>         0.1400
     23 C23        -6.0687    0.5879   51.1391 C.3     1  <0>        -0.1400
     24 C24        -6.3328    2.0964   51.1222 C.3     1  <0>        -0.1300
     25 C25        -5.2585    2.8060   51.9567 C.3     1  <0>        -0.0600
     26 C26        -3.9089    2.2849   51.5279 C.2     1  <0>         0.0900
     27 C27        -2.7002    2.8227   51.7817 C.2     1  <0>        -0.2600
     28 H28        -1.1686    2.7378   47.0573 H       1  <0>         0.0900
     29 H29        -0.2020    3.2880   45.6676 H       1  <0>         0.0600
     30 H30        -1.2001    1.8205   45.5322 H       1  <0>         0.0700
     31 H31        -0.5477   -0.2522   46.7654 H       1  <0>         0.0700
     32 H32         0.9152   -0.2614   47.7793 H       1  <0>         0.0600
     33 H33        -0.5162    0.6651   48.2905 H       1  <0>         0.0900
     34 H34         1.8072    1.9877   44.9501 H       1  <0>         0.0700
     35 H35         2.2719    0.5111   45.8287 H       1  <0>         0.0700
     36 H36         0.8090    0.5202   44.8147 H       1  <0>         0.0800
     37 H37         2.7725    0.5953   51.1446 H       1  <0>         0.0800
     38 H38         4.2116    1.0961   50.2048 H       1  <0>         0.0900
     39 H39         5.2697    3.6355   51.9386 H       1  <0>         0.3900
     40 H40         1.5286    2.7741   52.4398 H       1  <0>         0.1000
     41 H41         2.3599    4.3219   52.0756 H       1  <0>         0.1100
     42 H42         0.1953    1.7874   51.8989 H       1  <0>         0.4200
     43 H43        -4.9843    0.4611   49.2780 H       1  <0>         0.0800
     44 H44        -4.5157   -0.7610   50.4878 H       1  <0>         0.0900
     45 H45        -6.9155    0.0661   50.6934 H       1  <0>         0.0900
     46 H46        -5.9376    0.2539   52.1684 H       1  <0>         0.0800
     47 H47        -6.2963    2.4610   50.0956 H       1  <0>         0.0700
     48 H48        -7.3162    2.2987   51.5467 H       1  <0>         0.0800
     49 H49        -5.3094    3.8811   51.7844 H       1  <0>         0.0900
     50 H50        -5.4152    2.5946   53.0145 H       1  <0>         0.0900
     51 H51        -2.5105    3.7262   52.3422 H       1  <0>         0.1700
@<TRIPOS>BOND
     1     1     2    1
     2     1    28    1
     3     1    29    1
     4     1    30    1
     5     2     3    1
     6     2     4    1
     7     2     5    1
     8     3    31    1
     9     3    32    1
    10     3    33    1
    11     4    34    1
    12     4    35    1
    13     4    36    1
    14     5     6    1
    15     6     7    2
    16     6     8   am
    17     8    14    1
    18     8     9    1
    19     9    10    1
    20     9    37    1
    21     9    38    1
    22    10    11    1
    23    10    12    1
    24    10    13    1
    25    12    39    1
    26    13    14    1
    27    13    40    1
    28    13    41    1
    29    14    15    1
    30    14    16    1
    31    16    17    2
    32    16    18   am
    33    18    19    1
    34    18    42    1
    35    19    27    1
    36    19    20    2
    37    20    21    1
    38    21    26    1
    39    21    22    1
    40    22    23    1
    41    22    43    1
    42    22    44    1
    43    23    24    1
    44    23    45    1
    45    23    46    1
    46    24    25    1
    47    24    47    1
    48    24    48    1
    49    25    26    1
    50    25    49    1
    51    25    50    1
    52    26    27    2
    53    27    51    1
@<TRIPOS>SUBSTRUCTURE
     1 <0>         1 TEMP              0 ****  ****    0 ROOT


##########                                Name:    ZINC000011157684
##########                DOCK_Rotatable_Bonds:                   7
##########                         Heavy_Atoms:                  25
##########                    Molecular_Weight:             374.866
##########                DOCK_Rotatable_Bonds:                   7
##########                       Formal_Charge:           0.0400001
##########                     HBond_Acceptors:                   6
##########                        HBond_Donors:                   2
##########                         Heavy_Atoms:                  25
##########                          Grid_Score:          -30.525650
##########                     Grid_vdw_energy:          -28.103964
##########                      Grid_es_energy:           -2.421686
##########           Internal_energy_repulsive:            6.886837

@<TRIPOS>MOLECULE
ZINC000011157684
 41 43 1 0 0
SMALL
USER_CHARGES


@<TRIPOS>ATOM
      1 O1         -3.1784    0.5453   50.1015 O.2     1  ZINC000011157684   -0.5200
      2 C2         -3.0523    1.7056   50.4314 C.2     1  ZINC000011157684    0.5100
      3 C3         -4.2475    2.4854   50.9157 C.3     1  ZINC000011157684    0.1000
      4 N4         -4.8556    1.7907   52.0532 N.pl3   1  ZINC000011157684   -0.7300
      5 C5         -6.1969    2.0206   52.3775 C.ar    1  ZINC000011157684    0.2200
      6 C6         -6.5236    2.8952   53.4046 C.ar    1  ZINC000011157684   -0.1600
      7 C7         -7.8489    3.1213   53.7231 C.ar    1  ZINC000011157684   -0.0900
      8 C8         -8.8513    2.4760   53.0193 C.ar    1  ZINC000011157684    0.0500
      9 F9        -10.1464    2.6985   53.3331 F       1  ZINC000011157684   -0.1400
     10 C10        -8.5285    1.6031   51.9937 C.ar    1  ZINC000011157684   -0.0900
     11 C11        -7.2047    1.3779   51.6680 C.ar    1  ZINC000011157684   -0.0900
     12 Cl12       -6.8002    0.2836   50.3824 Cl      1  ZINC000011157684   -0.0500
     13 N13        -1.8423    2.2961   50.3702 N.am    1  ZINC000011157684   -0.7200
     14 C14        -0.6804    1.5380   49.8994 C.3     1  ZINC000011157684    0.2600
     15 H15        -0.8286    0.4785   50.1086 H       1  ZINC000011157684    0.1200
     16 C16         0.5570    2.0222   50.6104 C.2     1  ZINC000011157684   -0.1900
     17 C17         0.6017    2.4453   51.8746 C.2     1  ZINC000011157684   -0.1200
     18 C18         1.8532    2.8425   52.3128 C.2     1  ZINC000011157684   -0.1300
     19 C19         2.8249    2.7420   51.4045 C.2     1  ZINC000011157684   -0.2100
     20 S20         2.1647    2.1085   49.9023 S.3     1  ZINC000011157684    0.1100
     21 C21        -0.5177    1.7388   48.4147 C.ar    1  ZINC000011157684   -0.0900
     22 C22        -0.8474    2.9525   47.8412 C.ar    1  ZINC000011157684   -0.1100
     23 C23        -0.6982    3.1366   46.4793 C.ar    1  ZINC000011157684   -0.1100
     24 C24        -0.2187    2.1072   45.6911 C.ar    1  ZINC000011157684   -0.1100
     25 C25         0.1118    0.8938   46.2648 C.ar    1  ZINC000011157684   -0.1100
     26 C26        -0.0334    0.7110   47.6273 C.ar    1  ZINC000011157684   -0.1000
     27 H27        -3.9304    3.4813   51.2255 H       1  ZINC000011157684    0.1000
     28 H28        -4.9766    2.5705   50.1100 H       1  ZINC000011157684    0.1000
     29 H29        -4.3281    1.1713   52.5814 H       1  ZINC000011157684    0.4200
     30 H30        -5.7423    3.3986   53.9547 H       1  ZINC000011157684    0.1400
     31 H31        -8.1032    3.8018   54.5222 H       1  ZINC000011157684    0.1400
     32 H32        -9.3121    1.1010   51.4456 H       1  ZINC000011157684    0.1500
     33 H33        -1.7408    3.2229   50.6378 H       1  ZINC000011157684    0.4000
     34 H34        -0.2725    2.4759   52.5080 H       1  ZINC000011157684    0.1400
     35 H35         2.0294    3.2065   53.3142 H       1  ZINC000011157684    0.1400
     36 H36         3.8594    3.0057   51.5676 H       1  ZINC000011157684    0.1700
     37 H37        -1.2220    3.7568   48.4570 H       1  ZINC000011157684    0.1200
     38 H38        -0.9565    4.0848   46.0311 H       1  ZINC000011157684    0.1300
     39 H39        -0.1028    2.2509   44.6269 H       1  ZINC000011157684    0.1300
     40 H40         0.4861    0.0895   45.6489 H       1  ZINC000011157684    0.1300
     41 H41         0.2250   -0.2370   48.0754 H       1  ZINC000011157684    0.1300
@<TRIPOS>BOND
     1     1     2    2
     2     2     3    1
     3     2    13   am
     4     3     4    1
     5     3    27    1
     6     3    28    1
     7     4     5    1
     8     4    29    1
     9     5    11   ar
    10     5     6   ar
    11     6     7   ar
    12     6    30    1
    13     7     8   ar
    14     7    31    1
    15     8     9    1
    16     8    10   ar
    17    10    11   ar
    18    10    32    1
    19    11    12    1
    20    13    14    1
    21    13    33    1
    22    14    15    1
    23    14    16    1
    24    14    21    1
    25    16    20    1
    26    16    17    2
    27    17    18    1
    28    17    34    1
    29    18    19    2
    30    18    35    1
    31    19    20    1
    32    19    36    1
    33    21    26   ar
    34    21    22   ar
    35    22    23   ar
    36    22    37    1
    37    23    24   ar
    38    23    38    1
    39    24    25   ar
    40    24    39    1
    41    25    26   ar
    42    25    40    1
    43    26    41    1
@<TRIPOS>SUBSTRUCTURE
     1 ZINC000011157684        1 TEMP              0 ****  ****    0 ROOT


##########                                Name:    ZINC000469459940
##########                DOCK_Rotatable_Bonds:                   7
##########                         Heavy_Atoms:                  24
##########                    Molecular_Weight:             414.295
##########                DOCK_Rotatable_Bonds:                   7
##########                       Formal_Charge:          -0.0200002
##########                     HBond_Acceptors:                   6
##########                        HBond_Donors:                   1
##########                         Heavy_Atoms:                  24
##########                          Grid_Score:          -30.513460
##########                     Grid_vdw_energy:          -29.472431
##########                      Grid_es_energy:           -1.041030
##########           Internal_energy_repulsive:            8.199789

@<TRIPOS>MOLECULE
ZINC000469459940
 41 42 1 0 0
SMALL
USER_CHARGES


@<TRIPOS>ATOM
      1 C1        -13.3947    0.2933   51.6333 C.3     1  ZINC000469459940   -0.1600
      2 C2        -13.0446    1.7826   51.6501 C.3     1  ZINC000469459940   -0.1200
      3 C3        -11.9793    2.0441   52.7166 C.3     1  ZINC000469459940   -0.1200
      4 C4        -10.6137    1.5927   52.1949 C.3     1  ZINC000469459940   -0.6000
      5 S5         -9.3624    1.8373   53.4852 S.o2    1  ZINC000469459940    2.4900
      6 O6         -9.3529    3.1899   53.9207 O.2     1  ZINC000469459940   -0.9300
      7 O7         -9.3937    0.7672   54.4195 O.2     1  ZINC000469459940   -0.9300
      8 C8         -7.8240    1.6392   52.6490 C.ar    1  ZINC000469459940   -0.6400
      9 C9         -7.6418    0.5736   51.7856 C.ar    1  ZINC000469459940   -0.0300
     10 C10        -6.4397    0.4125   51.1280 C.ar    1  ZINC000469459940   -0.0800
     11 C11        -5.4063    1.3277   51.3352 C.ar    1  ZINC000469459940   -0.0900
     12 C12        -4.1158    1.1616   50.6338 C.2     1  ZINC000469459940    0.5600
     13 O13        -3.8591    0.1138   50.0734 O.2     1  ZINC000469459940   -0.5000
     14 N14        -3.2238    2.1718   50.6156 N.am    1  ZINC000469459940   -0.6700
     15 C15        -2.0026    2.0146   49.9518 C.ar    1  ZINC000469459940    0.1900
     16 C16        -0.8107    2.0962   50.6599 C.ar    1  ZINC000469459940   -0.1500
     17 C17         0.3945    1.9408   50.0030 C.ar    1  ZINC000469459940   -0.0400
     18 C18         0.4161    1.7043   48.6405 C.ar    1  ZINC000469459940   -0.1500
     19 Br19        2.0683    1.4921   47.7452 Br      1  ZINC000469459940   -0.0200
     20 C20        -0.7713    1.6222   47.9303 C.ar    1  ZINC000469459940    0.1500
     21 F21        -0.7478    1.3911   46.5994 F       1  ZINC000469459940   -0.1200
     22 C22        -1.9805    1.7710   48.5848 C.ar    1  ZINC000469459940   -0.1500
     23 C23        -5.5970    2.4008   52.2074 C.ar    1  ZINC000469459940   -0.1100
     24 C24        -6.8058    2.5532   52.8546 C.ar    1  ZINC000469459940   -0.0300
     25 H25       -12.5010   -0.2874   51.4044 H       1  ZINC000469459940    0.0600
     26 H26       -13.7786   -0.0007   52.6102 H       1  ZINC000469459940    0.0600
     27 H27       -14.1537    0.1069   50.8735 H       1  ZINC000469459940    0.0600
     28 H28       -12.6607    2.0766   50.6733 H       1  ZINC000469459940    0.0700
     29 H29       -13.9382    2.3632   51.8791 H       1  ZINC000469459940    0.0700
     30 H30       -11.9470    3.1096   52.9445 H       1  ZINC000469459940    0.0800
     31 H31       -12.2254    1.4867   53.6204 H       1  ZINC000469459940    0.0800
     32 H32       -10.6579    0.5370   51.9271 H       1  ZINC000469459940    0.1400
     33 H33       -10.3484    2.1797   51.3156 H       1  ZINC000469459940    0.1400
     34 H34        -8.4421   -0.1337   51.6261 H       1  ZINC000469459940    0.1500
     35 H35        -6.2984   -0.4201   50.4549 H       1  ZINC000469459940    0.1500
     36 H36        -3.4286    3.0078   51.0628 H       1  ZINC000469459940    0.4200
     37 H37        -0.8260    2.2815   51.7237 H       1  ZINC000469459940    0.1500
     38 H38         1.3212    2.0043   50.5540 H       1  ZINC000469459940    0.1500
     39 H39        -2.9061    1.7070   48.0319 H       1  ZINC000469459940    0.1600
     40 H40        -4.8014    3.1122   52.3723 H       1  ZINC000469459940    0.1400
     41 H41        -6.9547    3.3829   53.5297 H       1  ZINC000469459940    0.1500
@<TRIPOS>BOND
     1     1     2    1
     2     1    25    1
     3     1    26    1
     4     1    27    1
     5     2     3    1
     6     2    28    1
     7     2    29    1
     8     3     4    1
     9     3    30    1
    10     3    31    1
    11     4     5    1
    12     4    32    1
    13     4    33    1
    14     5     6    2
    15     5     7    2
    16     5     8    1
    17     8    24   ar
    18     8     9   ar
    19     9    10   ar
    20     9    34    1
    21    10    11   ar
    22    10    35    1
    23    11    12    1
    24    11    23   ar
    25    12    13    2
    26    12    14   am
    27    14    15    1
    28    14    36    1
    29    15    22   ar
    30    15    16   ar
    31    16    17   ar
    32    16    37    1
    33    17    18   ar
    34    17    38    1
    35    18    19    1
    36    18    20   ar
    37    20    21    1
    38    20    22   ar
    39    22    39    1
    40    23    24   ar
    41    23    40    1
    42    24    41    1
@<TRIPOS>SUBSTRUCTURE
     1 ZINC000469459940        1 TEMP              0 ****  ****    0 ROOT


##########                                Name:    ZINC000266467123
##########                DOCK_Rotatable_Bonds:                   9
##########                         Heavy_Atoms:                  25
##########                    Molecular_Weight:             337.421
##########                DOCK_Rotatable_Bonds:                   9
##########                       Formal_Charge:                0.02
##########                     HBond_Acceptors:                   5
##########                        HBond_Donors:                   3
##########                         Heavy_Atoms:                  25
##########                          Grid_Score:          -30.493263
##########                     Grid_vdw_energy:          -30.649395
##########                      Grid_es_energy:            0.156132
##########           Internal_energy_repulsive:            9.155849

@<TRIPOS>MOLECULE
ZINC000266467123
 48 50 1 0 0
SMALL
USER_CHARGES


@<TRIPOS>ATOM
      1 C1          0.1100    2.1687   50.6597 C.3     1  <0>        -0.1600
      2 C2         -0.5318    1.4432   49.4754 C.3     1  <0>         0.1500
      3 H3         -0.2401    0.3932   49.4913 H       1  <0>         0.1200
      4 N4         -0.0800    2.0567   48.2240 N.am    1  <0>        -0.7300
      5 C5          0.1105    1.2934   47.1296 C.2     1  <0>         0.7100
      6 O6         -0.0938    0.0960   47.1805 O.2     1  <0>        -0.5900
      7 N7          0.5276    1.8576   45.9789 N.am    1  <0>        -0.7100
      8 C8          0.7331    1.0282   44.7889 C.3     1  <0>         0.1100
      9 H9         -0.1109    0.4013   44.5013 H       1  <0>         0.1400
     10 C10         2.1389    0.4744   44.5479 C.3     1  <0>        -0.1900
     11 C11         1.5996    1.6044   43.6673 C.3     1  <0>        -0.1500
     12 H12         1.3259    1.3564   42.6418 H       1  <0>         0.1200
     13 C13         2.1860    3.0024   43.8740 C.3     1  <0>        -0.0500
     14 C14         1.5805    3.9541   42.8746 C.ar    1  <0>        -0.0800
     15 C15         2.1775    4.1324   41.6406 C.ar    1  <0>        -0.1100
     16 C16         1.6220    5.0052   40.7238 C.ar    1  <0>        -0.1200
     17 C17         0.4695    5.6995   41.0408 C.ar    1  <0>        -0.1200
     18 C18        -0.1279    5.5205   42.2745 C.ar    1  <0>        -0.1200
     19 C19         0.4250    4.6443   43.1897 C.ar    1  <0>        -0.1200
     20 C20        -2.0318    1.5496   49.5742 C.2     1  <0>         0.5100
     21 O21        -2.6861    1.8275   48.5915 O.2     1  <0>        -0.5100
     22 N22        -2.6461    1.3359   50.7545 N.am    1  <0>        -0.6700
     23 C23        -4.0389    1.4346   50.8463 C.ar    1  <0>         0.1400
     24 C24        -4.6319    2.6550   51.1428 C.ar    1  <0>        -0.1400
     25 C25        -6.0069    2.7491   51.2327 C.ar    1  <0>        -0.1000
     26 C26        -6.7929    1.6300   51.0282 C.ar    1  <0>        -0.1300
     27 C27        -6.2055    0.4133   50.7333 C.ar    1  <0>        -0.1000
     28 C28        -4.8314    0.3139   50.6354 C.ar    1  <0>        -0.1200
     29 H29        -0.2259    1.7124   51.5908 H       1  <0>         0.0700
     30 H30         1.1950    2.0919   50.5883 H       1  <0>         0.0800
     31 H31        -0.1816    3.2189   50.6438 H       1  <0>         0.0700
     32 H32         0.0818    3.0122   48.1831 H       1  <0>         0.4100
     33 H33         0.6918    2.8127   45.9387 H       1  <0>         0.4000
     34 H34         2.9108    0.7272   45.2747 H       1  <0>         0.1000
     35 H35         2.2197   -0.5166   44.1013 H       1  <0>         0.1000
     36 H36         1.9613    3.3448   44.8841 H       1  <0>         0.0800
     37 H37         3.2664    2.9675   43.7342 H       1  <0>         0.0700
     38 H38         3.0779    3.5899   41.3929 H       1  <0>         0.1200
     39 H39         2.0889    5.1451   39.7600 H       1  <0>         0.1200
     40 H40         0.0360    6.3820   40.3249 H       1  <0>         0.1200
     41 H41        -1.0282    6.0631   42.5224 H       1  <0>         0.1200
     42 H42        -0.0417    4.5044   44.1535 H       1  <0>         0.1200
     43 H43        -2.1229    1.1136   51.5404 H       1  <0>         0.4100
     44 H44        -4.0185    3.5292   51.3032 H       1  <0>         0.1300
     45 H45        -6.4686    3.6978   51.4632 H       1  <0>         0.1300
     46 H46        -7.8679    1.7060   51.0994 H       1  <0>         0.1200
     47 H47        -6.8220   -0.4591   50.5749 H       1  <0>         0.1300
     48 H48        -4.3731   -0.6365   50.4051 H       1  <0>         0.1400
@<TRIPOS>BOND
     1     1     2    1
     2     1    29    1
     3     1    30    1
     4     1    31    1
     5     2     3    1
     6     2     4    1
     7     2    20    1
     8     4     5   am
     9     4    32    1
    10     5     6    2
    11     5     7   am
    12     7     8    1
    13     7    33    1
    14     8     9    1
    15     8    11    1
    16     8    10    1
    17    10    11    1
    18    10    34    1
    19    10    35    1
    20    11    12    1
    21    11    13    1
    22    13    14    1
    23    13    36    1
    24    13    37    1
    25    14    19   ar
    26    14    15   ar
    27    15    16   ar
    28    15    38    1
    29    16    17   ar
    30    16    39    1
    31    17    18   ar
    32    17    40    1
    33    18    19   ar
    34    18    41    1
    35    19    42    1
    36    20    21    2
    37    20    22   am
    38    22    23    1
    39    22    43    1
    40    23    28   ar
    41    23    24   ar
    42    24    25   ar
    43    24    44    1
    44    25    26   ar
    45    25    45    1
    46    26    27   ar
    47    26    46    1
    48    27    28   ar
    49    27    47    1
    50    28    48    1
@<TRIPOS>SUBSTRUCTURE
     1 <0>         1 TEMP              0 ****  ****    0 ROOT


##########                                Name:    ZINC000054627026
##########                DOCK_Rotatable_Bonds:                   5
##########                         Heavy_Atoms:                  28
##########                    Molecular_Weight:              370.37
##########                DOCK_Rotatable_Bonds:                   5
##########                       Formal_Charge:         6.85453e-07
##########                     HBond_Acceptors:                   8
##########                        HBond_Donors:                   2
##########                         Heavy_Atoms:                  28
##########                          Grid_Score:          -30.492022
##########                     Grid_vdw_energy:          -30.361294
##########                      Grid_es_energy:           -0.130728
##########           Internal_energy_repulsive:            5.851717

@<TRIPOS>MOLECULE
ZINC000054627026
 42 46 1 0 0
SMALL
USER_CHARGES


@<TRIPOS>ATOM
      1 O1         -8.2852    1.5009   53.8265 O.2     1  ZINC000054627026   -0.5200
      2 C2         -8.9052    1.1434   52.8433 C.2     1  ZINC000054627026    0.6100
      3 N3         -8.3272    1.1942   51.6268 N.am    1  ZINC000054627026   -0.6500
      4 C4         -7.0146    1.6641   51.4943 C.ar    1  ZINC000054627026    0.1400
      5 C5         -6.6934    2.9511   51.9206 C.ar    1  ZINC000054627026   -0.0900
      6 C6         -5.4051    3.4258   51.7962 C.ar    1  ZINC000054627026   -0.0900
      7 C7         -4.4201    2.6201   51.2437 C.ar    1  ZINC000054627026    0.0500
      8 N8         -3.0714    2.7968   50.9877 N.pl3   1  ZINC000054627026   -0.5900
      9 C9         -2.6115    1.6356   50.4222 C.2     1  ZINC000054627026    0.3700
     10 C10        -1.2259    1.3937   49.9939 C.2     1  ZINC000054627026    0.0200
     11 C11        -0.1047    1.6634   50.7206 C.2     1  ZINC000054627026   -0.1200
     12 C12         0.9926    1.2754   49.9308 C.2     1  ZINC000054627026   -0.2200
     13 C13         0.4963    0.7927   48.7727 C.2     1  ZINC000054627026   -0.0100
     14 O14        -0.8429    0.8609   48.8163 O.3     1  ZINC000054627026   -0.1700
     15 N15        -3.5962    0.7717   50.3215 N.2     1  ZINC000054627026   -0.4600
     16 C16        -4.7350    1.3195   50.8106 C.ar    1  ZINC000054627026    0.0700
     17 C17        -6.0439    0.8465   50.9465 C.ar    1  ZINC000054627026   -0.0900
     18 C18       -10.2875    0.6484   52.9829 C.2     1  ZINC000054627026   -0.1000
     19 C19       -10.9448    0.4367   54.1618 C.2     1  ZINC000054627026    0.1000
     20 N20       -12.1784   -0.0138   53.8455 N.pl3   1  ZINC000054627026   -0.3100
     21 C21       -13.1977   -0.3613   54.7435 C.ar    1  ZINC000054627026    0.1300
     22 C22       -12.9932   -0.2340   56.1108 C.ar    1  ZINC000054627026   -0.1200
     23 C23       -13.9991   -0.5765   56.9930 C.ar    1  ZINC000054627026   -0.1000
     24 C24       -15.2090   -1.0463   56.5157 C.ar    1  ZINC000054627026   -0.1100
     25 C25       -15.4154   -1.1746   55.1544 C.ar    1  ZINC000054627026   -0.1000
     26 C26       -14.4154   -0.8278   54.2672 C.ar    1  ZINC000054627026   -0.1000
     27 N27       -12.2434   -0.0664   52.4458 N.2     1  ZINC000054627026   -0.0500
     28 N28       -11.1158    0.3350   51.9715 N.2     1  ZINC000054627026   -0.2000
     29 H29        -8.8203    0.9051   50.8431 H       1  ZINC000054627026    0.4200
     30 H30        -7.4583    3.5806   52.3507 H       1  ZINC000054627026    0.1500
     31 H31        -5.1628    4.4246   52.1283 H       1  ZINC000054627026    0.1300
     32 H32        -2.5496    3.5932   51.1730 H       1  ZINC000054627026    0.4300
     33 H33        -0.0662    2.0926   51.7110 H       1  ZINC000054627026    0.1600
     34 H34         2.0358    1.3501   50.2003 H       1  ZINC000054627026    0.1600
     35 H35         1.0805    0.4113   47.9482 H       1  ZINC000054627026    0.2100
     36 H36        -6.2961   -0.1524   50.6222 H       1  ZINC000054627026    0.1400
     37 H37       -10.5534    0.5980   55.1553 H       1  ZINC000054627026    0.2100
     38 H38       -12.0483    0.1322   56.4843 H       1  ZINC000054627026    0.1400
     39 H39       -13.8407   -0.4777   58.0567 H       1  ZINC000054627026    0.1400
     40 H40       -15.9940   -1.3139   57.2074 H       1  ZINC000054627026    0.1400
     41 H41       -16.3612   -1.5421   54.7846 H       1  ZINC000054627026    0.1400
     42 H42       -14.5772   -0.9282   53.2040 H       1  ZINC000054627026    0.1400
@<TRIPOS>BOND
     1     1     2    2
     2     2     3   am
     3     2    18    1
     4     3     4    1
     5     3    29    1
     6     4    17   ar
     7     4     5   ar
     8     5     6   ar
     9     5    30    1
    10     6     7   ar
    11     6    31    1
    12     7    16   ar
    13     7     8    1
    14     8     9    1
    15     8    32    1
    16     9    10    1
    17     9    15    2
    18    10    14    1
    19    10    11    2
    20    11    12    1
    21    11    33    1
    22    12    13    2
    23    12    34    1
    24    13    14    1
    25    13    35    1
    26    15    16    1
    27    16    17   ar
    28    17    36    1
    29    18    28    1
    30    18    19    2
    31    19    20    1
    32    19    37    1
    33    20    21    1
    34    20    27    1
    35    21    26   ar
    36    21    22   ar
    37    22    23   ar
    38    22    38    1
    39    23    24   ar
    40    23    39    1
    41    24    25   ar
    42    24    40    1
    43    25    26   ar
    44    25    41    1
    45    26    42    1
    46    27    28    2
@<TRIPOS>SUBSTRUCTURE
     1 ZINC000054627026        1 TEMP              0 ****  ****    0 ROOT


##########                                Name:    ZINC000847397179
##########                DOCK_Rotatable_Bonds:                   9
##########                         Heavy_Atoms:                  25
##########                    Molecular_Weight:             350.461
##########                DOCK_Rotatable_Bonds:                   9
##########                       Formal_Charge:          0.00999979
##########                     HBond_Acceptors:                   7
##########                        HBond_Donors:                   2
##########                         Heavy_Atoms:                  25
##########                          Grid_Score:          -30.489756
##########                     Grid_vdw_energy:          -29.851261
##########                      Grid_es_energy:           -0.638494
##########           Internal_energy_repulsive:           86.158638

@<TRIPOS>MOLECULE
ZINC000847397179
 55 56 1 0 0
SMALL
USER_CHARGES


@<TRIPOS>ATOM
      1 C1         -6.0578    2.7419   52.5470 C.3     1  ZINC000847397179   -0.1500
      2 C2         -6.2597    2.1650   51.1444 C.3     1  ZINC000847397179   -0.1000
      3 H3         -6.7481    2.9073   50.5131 H       1  ZINC000847397179    0.0900
      4 C4         -7.1345    0.9126   51.2291 C.3     1  ZINC000847397179   -0.0200
      5 C5         -8.4959    1.2855   51.7568 C.2     1  ZINC000847397179    0.0100
      6 C6         -9.1083    2.4742   51.5969 C.2     1  ZINC000847397179   -0.0500
      7 N7        -10.3189    2.3842   52.2293 N.pl3   1  ZINC000847397179   -0.5700
      8 C8        -10.4042    1.1429   52.7540 C.2     1  ZINC000847397179    0.1800
      9 N9         -9.3125    0.4898   52.4632 N.2     1  ZINC000847397179   -0.4900
     10 C10        -4.9217    1.8041   50.5524 C.2     1  ZINC000847397179    0.5200
     11 O11        -4.8495    0.9551   49.6893 O.2     1  ZINC000847397179   -0.5300
     12 N12        -3.8052    2.4248   50.9820 N.am    1  ZINC000847397179   -0.7400
     13 C13        -2.5042    2.0727   50.4078 C.3     1  ZINC000847397179    0.1200
     14 C14        -1.4891    3.1700   50.7337 C.3     1  ZINC000847397179    0.1500
     15 H15        -1.7754    4.0937   50.2310 H       1  ZINC000847397179    0.0800
     16 C16        -1.4500    3.4001   52.2477 C.3     1  ZINC000847397179   -0.1300
     17 C17        -0.3370    4.3967   52.5798 C.3     1  ZINC000847397179   -0.1200
     18 C18         1.0123    3.8209   52.1437 C.3     1  ZINC000847397179   -0.1400
     19 C19         1.0012    3.5956   50.6285 C.3     1  ZINC000847397179    0.1100
     20 N20        -0.1540    2.7561   50.2808 N.am    1  ZINC000847397179   -0.5900
     21 C21         0.0090    1.6261   49.5648 C.2     1  ZINC000847397179    0.6500
     22 O22        -0.9541    0.9407   49.2837 O.2     1  ZINC000847397179   -0.5500
     23 O23         1.2390    1.2566   49.1608 O.3     1  ZINC000847397179   -0.3600
     24 C24         1.5047    1.2988   47.7340 C.3     1  ZINC000847397179    0.1400
     25 C25         1.0836   -0.0271   47.0972 C.3     1  ZINC000847397179   -0.1800
     26 C26         0.7109    2.4434   47.1010 C.3     1  ZINC000847397179   -0.1400
     27 C27         2.9999    1.5247   47.5001 C.3     1  ZINC000847397179   -0.1800
     28 H28        -5.5695    1.9996   53.1784 H       1  ZINC000847397179    0.0500
     29 H29        -5.4346    3.6342   52.4867 H       1  ZINC000847397179    0.0500
     30 H30        -7.0257    3.0029   52.9752 H       1  ZINC000847397179    0.1000
     31 H31        -7.2372    0.4733   50.2368 H       1  ZINC000847397179    0.0800
     32 H32        -6.6702    0.1898   51.9000 H       1  ZINC000847397179    0.0800
     33 H33        -8.7189    3.3335   51.0711 H       1  ZINC000847397179    0.1800
     34 H34       -10.9902    3.0819   52.2894 H       1  ZINC000847397179    0.4200
     35 H35       -11.2394    0.7536   53.3174 H       1  ZINC000847397179    0.2100
     36 H36        -3.8630    3.1046   51.6715 H       1  ZINC000847397179    0.3900
     37 H37        -2.1649    1.1267   50.8297 H       1  ZINC000847397179    0.0800
     38 H38        -2.5989    1.9750   49.3263 H       1  ZINC000847397179    0.1000
     39 H39        -2.4079    3.8007   52.5797 H       1  ZINC000847397179    0.0800
     40 H40        -1.2551    2.4550   52.7545 H       1  ZINC000847397179    0.0700
     41 H41        -0.5192    5.3334   52.0530 H       1  ZINC000847397179    0.0700
     42 H42        -0.3231    4.5809   53.6539 H       1  ZINC000847397179    0.0700
     43 H43         1.8071    4.5209   52.4015 H       1  ZINC000847397179    0.0800
     44 H44         1.1840    2.8717   52.6514 H       1  ZINC000847397179    0.0700
     45 H45         0.9203    4.5546   50.1170 H       1  ZINC000847397179    0.0700
     46 H46         1.9210    3.0945   50.3268 H       1  ZINC000847397179    0.0900
     47 H47         0.0185   -0.1881   47.2638 H       1  ZINC000847397179    0.0600
     48 H48         1.2831    0.0045   46.0261 H       1  ZINC000847397179    0.0700
     49 H49         1.6491   -0.8425   47.5483 H       1  ZINC000847397179    0.0900
     50 H50         1.0111    3.3881   47.5545 H       1  ZINC000847397179    0.0700
     51 H51         0.9105    2.4750   46.0298 H       1  ZINC000847397179    0.0800
     52 H52        -0.3542    2.2825   47.2675 H       1  ZINC000847397179    0.0700
     53 H53         3.5654    0.7092   47.9510 H       1  ZINC000847397179    0.0900
     54 H54         3.1994    1.5563   46.4290 H       1  ZINC000847397179    0.0700
     55 H55         3.2999    2.4693   47.9537 H       1  ZINC000847397179    0.0600
@<TRIPOS>BOND
     1     1     2    1
     2     1    28    1
     3     1    29    1
     4     1    30    1
     5     2     3    1
     6     2     4    1
     7     2    10    1
     8     4     5    1
     9     4    31    1
    10     4    32    1
    11     5     9    1
    12     5     6    2
    13     6     7    1
    14     6    33    1
    15     7     8    1
    16     7    34    1
    17     8     9    2
    18     8    35    1
    19    10    11    2
    20    10    12   am
    21    12    13    1
    22    12    36    1
    23    13    14    1
    24    13    37    1
    25    13    38    1
    26    14    15    1
    27    14    20    1
    28    14    16    1
    29    16    17    1
    30    16    39    1
    31    16    40    1
    32    17    18    1
    33    17    41    1
    34    17    42    1
    35    18    19    1
    36    18    43    1
    37    18    44    1
    38    19    20    1
    39    19    45    1
    40    19    46    1
    41    20    21   am
    42    21    22    2
    43    21    23    1
    44    23    24    1
    45    24    25    1
    46    24    26    1
    47    24    27    1
    48    25    47    1
    49    25    48    1
    50    25    49    1
    51    26    50    1
    52    26    51    1
    53    26    52    1
    54    27    53    1
    55    27    54    1
    56    27    55    1
@<TRIPOS>SUBSTRUCTURE
     1 ZINC000847397179        1 TEMP              0 ****  ****    0 ROOT


##########                                Name:    ZINC001060733018
##########                DOCK_Rotatable_Bonds:                   7
##########                         Heavy_Atoms:                  24
##########                    Molecular_Weight:             342.429
##########                DOCK_Rotatable_Bonds:                   7
##########                       Formal_Charge:           0.0200001
##########                     HBond_Acceptors:                   6
##########                        HBond_Donors:                   2
##########                         Heavy_Atoms:                  24
##########                          Grid_Score:          -30.455719
##########                     Grid_vdw_energy:          -30.228653
##########                      Grid_es_energy:           -0.227066
##########           Internal_energy_repulsive:            7.416559

@<TRIPOS>MOLECULE
ZINC001060733018
 52 54 1 0 0
SMALL
USER_CHARGES


@<TRIPOS>ATOM
      1 O1        -10.2386    0.8766   54.1325 O.2     1  ZINC001060733018   -0.5000
      2 C2        -10.4989    1.1004   52.9694 C.2     1  ZINC001060733018    0.4700
      3 N3         -9.6070    1.7452   52.1912 N.am    1  ZINC001060733018   -0.7100
      4 C4         -8.3250    2.1793   52.7517 C.3     1  ZINC001060733018    0.1200
      5 C5         -7.2538    2.1464   51.6598 C.3     1  ZINC001060733018   -0.1000
      6 H6         -7.5763    2.7563   50.8158 H       1  ZINC001060733018    0.0800
      7 C7         -5.9406    2.7000   52.2167 C.3     1  ZINC001060733018   -0.1100
      8 C8         -4.8695    2.6672   51.1247 C.3     1  ZINC001060733018   -0.1300
      9 C9         -4.6586    1.2246   50.6604 C.3     1  ZINC001060733018    0.1400
     10 H10        -4.3360    0.6147   51.5043 H       1  ZINC001060733018    0.0900
     11 N11        -3.6329    1.1932   49.6149 N.am    1  ZINC001060733018   -0.7300
     12 C12        -2.3282    1.2442   49.9490 C.2     1  ZINC001060733018    0.5200
     13 O13        -2.0032    1.3149   51.1153 O.2     1  ZINC001060733018   -0.5400
     14 C14        -1.2732    1.2137   48.8733 C.3     1  ZINC001060733018   -0.1000
     15 H15        -1.1649    0.1956   48.4994 H       1  ZINC001060733018    0.1000
     16 C16         0.0601    1.6885   49.4531 C.3     1  ZINC001060733018   -0.1100
     17 C17         1.1531    1.5905   48.3879 C.3     1  ZINC001060733018   -0.1200
     18 C18         0.8163    2.5271   47.2236 C.3     1  ZINC001060733018   -0.0800
     19 C19        -0.5686    2.1638   46.6799 C.3     1  ZINC001060733018   -0.1300
     20 C20        -0.6396    1.1499   45.5383 C.3     1  ZINC001060733018   -0.1700
     21 C21        -0.9234    2.6292   45.2683 C.3     1  ZINC001060733018   -0.1700
     22 C22        -1.6881    2.1382   47.7247 C.3     1  ZINC001060733018   -0.0600
     23 C23        -5.9717    0.6710   50.1035 C.3     1  ZINC001060733018   -0.1200
     24 C24        -7.0429    0.7039   51.1955 C.3     1  ZINC001060733018   -0.1100
     25 C25       -11.8169    0.6523   52.3924 C.3     1  ZINC001060733018    0.2600
     26 F26       -12.3423   -0.3803   53.1766 F       1  ZINC001060733018   -0.1700
     27 F27       -12.7105    1.7288   52.3794 F       1  ZINC001060733018   -0.1900
     28 H28        -9.8141    1.9218   51.2602 H       1  ZINC001060733018    0.4100
     29 H29        -8.4215    3.1949   53.1355 H       1  ZINC001060733018    0.0800
     30 H30        -8.0377    1.5101   53.5627 H       1  ZINC001060733018    0.0800
     31 H31        -6.0908    3.7277   52.5474 H       1  ZINC001060733018    0.0700
     32 H32        -5.6181    2.0902   53.0606 H       1  ZINC001060733018    0.0700
     33 H33        -3.9340    3.0615   51.5214 H       1  ZINC001060733018    0.0700
     34 H34        -5.1920    3.2770   50.2809 H       1  ZINC001060733018    0.0600
     35 H35        -3.8928    1.1355   48.6821 H       1  ZINC001060733018    0.4000
     36 H36        -0.0353    2.7239   49.7802 H       1  ZINC001060733018    0.0700
     37 H37         0.3282    1.0628   50.3044 H       1  ZINC001060733018    0.0700
     38 H38         2.1103    1.8798   48.8218 H       1  ZINC001060733018    0.0700
     39 H39         1.2145    0.5651   48.0234 H       1  ZINC001060733018    0.0700
     40 H40         0.8113    3.5590   47.5748 H       1  ZINC001060733018    0.0700
     41 H41         1.5599    2.4116   46.4351 H       1  ZINC001060733018    0.0700
     42 H42         0.3010    0.7420   45.1681 H       1  ZINC001060733018    0.0900
     43 H43        -1.4870    0.4643   45.5259 H       1  ZINC001060733018    0.0900
     44 H44        -1.9574    2.9168   45.0781 H       1  ZINC001060733018    0.0900
     45 H45        -0.1696    3.1948   44.7205 H       1  ZINC001060733018    0.0900
     46 H46        -2.6049    1.7649   47.2685 H       1  ZINC001060733018    0.0700
     47 H47        -1.8528    3.1453   48.1079 H       1  ZINC001060733018    0.0800
     48 H48        -5.8215   -0.3567   49.7726 H       1  ZINC001060733018    0.0700
     49 H49        -6.2943    1.2808   49.2596 H       1  ZINC001060733018    0.0700
     50 H50        -6.7204    0.0940   52.0393 H       1  ZINC001060733018    0.0700
     51 H51        -7.9784    0.3094   50.7987 H       1  ZINC001060733018    0.0700
     52 H52       -11.6648    0.2941   51.3742 H       1  ZINC001060733018    0.1400
@<TRIPOS>BOND
     1     1     2    2
     2     2     3   am
     3     2    25    1
     4     3     4    1
     5     3    28    1
     6     4     5    1
     7     4    29    1
     8     4    30    1
     9     5     6    1
    10     5    24    1
    11     5     7    1
    12     7     8    1
    13     7    31    1
    14     7    32    1
    15     8     9    1
    16     8    33    1
    17     8    34    1
    18     9    10    1
    19     9    11    1
    20     9    23    1
    21    11    12   am
    22    11    35    1
    23    12    13    2
    24    12    14    1
    25    14    15    1
    26    14    22    1
    27    14    16    1
    28    16    17    1
    29    16    36    1
    30    16    37    1
    31    17    18    1
    32    17    38    1
    33    17    39    1
    34    18    19    1
    35    18    40    1
    36    18    41    1
    37    19    21    1
    38    19    20    1
    39    19    22    1
    40    20    21    1
    41    20    42    1
    42    20    43    1
    43    21    44    1
    44    21    45    1
    45    22    46    1
    46    22    47    1
    47    23    24    1
    48    23    48    1
    49    23    49    1
    50    24    50    1
    51    24    51    1
    52    25    26    1
    53    25    27    1
    54    25    52    1
@<TRIPOS>SUBSTRUCTURE
     1 ZINC001060733018        1 TEMP              0 ****  ****    0 ROOT


##########                                Name:    ZINC000541252362
##########                DOCK_Rotatable_Bonds:                   5
##########                         Heavy_Atoms:                  27
##########                    Molecular_Weight:             401.254
##########                DOCK_Rotatable_Bonds:                   5
##########                       Formal_Charge:          -0.0199999
##########                     HBond_Acceptors:                   9
##########                        HBond_Donors:                   1
##########                         Heavy_Atoms:                  27
##########                          Grid_Score:          -30.443108
##########                     Grid_vdw_energy:          -29.937210
##########                      Grid_es_energy:           -0.505898
##########           Internal_energy_repulsive:            3.792739

@<TRIPOS>MOLECULE
ZINC000541252362
 41 44 1 0 0
SMALL
USER_CHARGES


@<TRIPOS>ATOM
      1 C1          2.8428    0.8671   41.3046 C.3     1  ZINC000541252362    0.1000
      2 N2          2.2762    2.0600   41.9390 N.pl3   1  ZINC000541252362   -0.3800
      3 C3          2.0957    3.2654   41.3697 C.2     1  ZINC000541252362    0.2600
      4 N4          1.5655    4.0635   42.2582 N.2     1  ZINC000541252362   -0.5300
      5 C5          1.3906    3.4052   43.4119 C.2     1  ZINC000541252362    0.2700
      6 C6          0.8136    3.9758   44.6545 C.ar    1  ZINC000541252362    0.0000
      7 C7          0.4014    5.3065   44.6864 C.ar    1  ZINC000541252362   -0.1000
      8 C8         -0.1356    5.8360   45.8431 C.ar    1  ZINC000541252362   -0.1000
      9 C9         -0.2659    5.0499   46.9720 C.ar    1  ZINC000541252362   -0.1300
     10 C10         0.1424    3.7218   46.9492 C.ar    1  ZINC000541252362    0.1400
     11 N11         0.0089    2.9286   48.0944 N.am    1  ZINC000541252362   -0.6800
     12 C12        -0.8334    1.8766   48.0911 C.2     1  ZINC000541252362    0.5100
     13 O13        -1.4760    1.6173   47.0955 O.2     1  ZINC000541252362   -0.4900
     14 C14        -0.9772    1.0225   49.3243 C.3     1  ZINC000541252362   -0.0600
     15 C15        -2.1249    1.5321   50.1574 C.2     1  ZINC000541252362    0.0700
     16 C16        -2.1060    2.6388   50.9325 C.2     1  ZINC000541252362   -0.0700
     17 N17        -3.3391    2.7450   51.5154 N.pl3   1  ZINC000541252362   -0.3500
     18 C18        -3.8764    3.6549   52.3809 C.2     1  ZINC000541252362    0.0700
     19 C19        -5.1488    3.5243   52.8136 C.2     1  ZINC000541252362   -0.0500
     20 Cl20       -5.8119    4.6922   53.9135 Cl      1  ZINC000541252362   -0.0200
     21 C21        -5.9389    2.4471   52.3768 C.2     1  ZINC000541252362   -0.0900
     22 C22        -5.4156    1.5337   51.5141 C.2     1  ZINC000541252362    0.0200
     23 Cl23       -6.3765    0.1969   50.9632 Cl      1  ZINC000541252362   -0.0100
     24 C24        -4.0848    1.6843   51.0721 C.2     1  ZINC000541252362    0.2200
     25 N25        -3.3317    0.9688   50.2482 N.2     1  ZINC000541252362   -0.4300
     26 C26         0.6774    3.1812   45.7898 C.ar    1  ZINC000541252362   -0.0800
     27 N27         1.8093    2.1681   43.2590 N.2     1  ZINC000541252362   -0.3100
     28 H28         2.0444    0.2895   40.8387 H       1  ZINC000541252362    0.0800
     29 H29         3.5646    1.1676   40.5453 H       1  ZINC000541252362    0.0900
     30 H30         3.3407    0.2568   42.0581 H       1  ZINC000541252362    0.0900
     31 H31         2.3462    3.5284   40.3526 H       1  ZINC000541252362    0.2200
     32 H32         0.5025    5.9241   43.8062 H       1  ZINC000541252362    0.1300
     33 H33        -0.4544    6.8676   45.8657 H       1  ZINC000541252362    0.1300
     34 H34        -0.6859    5.4687   47.8745 H       1  ZINC000541252362    0.1300
     35 H35         0.5228    3.1360   48.8905 H       1  ZINC000541252362    0.4100
     36 H36        -1.1712   -0.0093   49.0310 H       1  ZINC000541252362    0.1200
     37 H37        -0.0570    1.0676   49.9069 H       1  ZINC000541252362    0.1200
     38 H38        -1.2730    3.3129   51.0672 H       1  ZINC000541252362    0.1900
     39 H39        -3.2778    4.4864   52.7226 H       1  ZINC000541252362    0.1800
     40 H40        -6.9564    2.3444   52.7244 H       1  ZINC000541252362    0.1600
     41 H41         0.9950    2.1492   45.7698 H       1  ZINC000541252362    0.1500
@<TRIPOS>BOND
     1     1     2    1
     2     1    28    1
     3     1    29    1
     4     1    30    1
     5     2    27    1
     6     2     3    1
     7     3     4    2
     8     3    31    1
     9     4     5    1
    10     5     6    1
    11     5    27    2
    12     6    26   ar
    13     6     7   ar
    14     7     8   ar
    15     7    32    1
    16     8     9   ar
    17     8    33    1
    18     9    10   ar
    19     9    34    1
    20    10    11    1
    21    10    26   ar
    22    11    12   am
    23    11    35    1
    24    12    13    2
    25    12    14    1
    26    14    15    1
    27    14    36    1
    28    14    37    1
    29    15    25    1
    30    15    16    2
    31    16    17    1
    32    16    38    1
    33    17    24    1
    34    17    18    1
    35    18    19    2
    36    18    39    1
    37    19    20    1
    38    19    21    1
    39    21    22    2
    40    21    40    1
    41    22    23    1
    42    22    24    1
    43    24    25    2
    44    26    41    1
@<TRIPOS>SUBSTRUCTURE
     1 ZINC000541252362        1 TEMP              0 ****  ****    0 ROOT


##########                                Name:    ZINC000790735374
##########                DOCK_Rotatable_Bonds:                   5
##########                         Heavy_Atoms:                  25
##########                    Molecular_Weight:             353.445
##########                DOCK_Rotatable_Bonds:                   5
##########                       Formal_Charge:                   0
##########                     HBond_Acceptors:                   6
##########                        HBond_Donors:                   1
##########                         Heavy_Atoms:                  25
##########                          Grid_Score:          -30.440752
##########                     Grid_vdw_energy:          -29.587843
##########                      Grid_es_energy:           -0.852909
##########           Internal_energy_repulsive:           11.314272

@<TRIPOS>MOLECULE
ZINC000790735374
 44 47 1 0 0
SMALL
USER_CHARGES


@<TRIPOS>ATOM
      1 O1         -4.5343   -0.4806   50.1405 O.2     1  ZINC000790735374   -0.5100
      2 C2         -4.7843    0.6521   50.4947 C.2     1  ZINC000790735374    0.5000
      3 N3         -3.9776    1.6669   50.1261 N.am    1  ZINC000790735374   -0.7200
      4 C4         -2.7955    1.4011   49.3026 C.3     1  ZINC000790735374    0.1400
      5 C5         -1.6671    2.3514   49.7081 C.3     1  ZINC000790735374   -0.0300
      6 H6         -1.8252    3.3209   49.2357 H       1  ZINC000790735374    0.1100
      7 S7         -1.6726    2.5543   51.5100 S.3     1  ZINC000790735374   -0.2400
      8 C8         -0.0500    3.3374   51.7718 C.3     1  ZINC000790735374   -0.0800
      9 C9          1.0192    2.3415   51.3476 C.3     1  ZINC000790735374   -0.0800
     10 C10         0.8224    1.8044   49.9585 C.ar    1  ZINC000790735374   -0.0700
     11 C11         1.9778    1.2776   49.3715 C.ar    1  ZINC000790735374   -0.1200
     12 C12         1.9586    0.7331   48.1091 C.ar    1  ZINC000790735374   -0.1100
     13 C13         0.7725    0.7004   47.3996 C.ar    1  ZINC000790735374   -0.1200
     14 C14        -0.3666    1.2223   47.9688 C.ar    1  ZINC000790735374   -0.1100
     15 C15        -0.3470    1.7824   49.2502 C.ar    1  ZINC000790735374   -0.0800
     16 C16        -6.0003    0.9257   51.3419 C.3     1  ZINC000790735374    0.0300
     17 H17        -6.1634    0.1204   52.0581 H       1  ZINC000790735374    0.1500
     18 C18        -5.8787    2.2903   52.0610 C.3     1  ZINC000790735374   -0.1400
     19 C19        -6.5935    3.2298   51.1083 C.2     1  ZINC000790735374    0.1200
     20 C20        -6.5134    4.7039   51.1245 C.ar    1  ZINC000790735374   -0.1000
     21 C21        -7.2234    5.4658   50.1888 C.ar    1  ZINC000790735374   -0.0400
     22 C22        -7.1146    6.8442   50.2473 C.ar    1  ZINC000790735374   -0.1700
     23 C23        -6.3159    7.4197   51.2188 C.ar    1  ZINC000790735374    0.1200
     24 N24        -5.6580    6.6767   52.0881 N.ar    1  ZINC000790735374   -0.4800
     25 C25        -5.7330    5.3622   52.0769 C.ar    1  ZINC000790735374    0.1400
     26 N26        -7.2838    2.5189   50.2811 N.2     1  ZINC000790735374   -0.2700
     27 O27        -7.1671    1.1292   50.5194 O.3     1  ZINC000790735374   -0.1600
     28 H28        -4.1797    2.5734   50.4061 H       1  ZINC000790735374    0.4100
     29 H29        -2.4736    0.3704   49.4511 H       1  ZINC000790735374    0.0800
     30 H30        -3.0420    1.5569   48.2523 H       1  ZINC000790735374    0.0900
     31 H31         0.0260    4.2410   51.1670 H       1  ZINC000790735374    0.0900
     32 H32         0.0743    3.5861   52.8258 H       1  ZINC000790735374    0.1100
     33 H33         1.9916    2.8313   51.3978 H       1  ZINC000790735374    0.0900
     34 H34         1.0157    1.5065   52.0482 H       1  ZINC000790735374    0.0900
     35 H35         2.9065    1.2993   49.9226 H       1  ZINC000790735374    0.1200
     36 H36         2.8634    0.3344   47.6747 H       1  ZINC000790735374    0.1300
     37 H37         0.7403    0.2702   46.4094 H       1  ZINC000790735374    0.1300
     38 H38        -1.2939    1.1965   47.4158 H       1  ZINC000790735374    0.1300
     39 H39        -6.3808    2.2642   53.0281 H       1  ZINC000790735374    0.1200
     40 H40        -4.8330    2.5762   52.1744 H       1  ZINC000790735374    0.1100
     41 H41        -7.8396    4.9901   49.4403 H       1  ZINC000790735374    0.1500
     42 H42        -7.6476    7.4640   49.5415 H       1  ZINC000790735374    0.1500
     43 H43        -6.2291    8.4952   51.2663 H       1  ZINC000790735374    0.1600
     44 H44        -5.1799    4.7879   52.8054 H       1  ZINC000790735374    0.1600
@<TRIPOS>BOND
     1     1     2    2
     2     2     3   am
     3     2    16    1
     4     3     4    1
     5     3    28    1
     6     4     5    1
     7     4    29    1
     8     4    30    1
     9     5     6    1
    10     5    15    1
    11     5     7    1
    12     7     8    1
    13     8     9    1
    14     8    31    1
    15     8    32    1
    16     9    10    1
    17     9    33    1
    18     9    34    1
    19    10    15   ar
    20    10    11   ar
    21    11    12   ar
    22    11    35    1
    23    12    13   ar
    24    12    36    1
    25    13    14   ar
    26    13    37    1
    27    14    15   ar
    28    14    38    1
    29    16    17    1
    30    16    27    1
    31    16    18    1
    32    18    19    1
    33    18    39    1
    34    18    40    1
    35    19    20    1
    36    19    26    2
    37    20    25   ar
    38    20    21   ar
    39    21    22   ar
    40    21    41    1
    41    22    23   ar
    42    22    42    1
    43    23    24   ar
    44    23    43    1
    45    24    25   ar
    46    25    44    1
    47    26    27    1
@<TRIPOS>SUBSTRUCTURE
     1 ZINC000790735374        1 TEMP              0 ****  ****    0 ROOT


##########                                Name:    ZINC000291036115
##########                DOCK_Rotatable_Bonds:                   5
##########                         Heavy_Atoms:                  22
##########                    Molecular_Weight:             366.193
##########                DOCK_Rotatable_Bonds:                   5
##########                       Formal_Charge:                0.01
##########                     HBond_Acceptors:                   7
##########                        HBond_Donors:                   0
##########                         Heavy_Atoms:                  22
##########                          Grid_Score:          -30.392113
##########                     Grid_vdw_energy:          -29.570515
##########                      Grid_es_energy:           -0.821598
##########           Internal_energy_repulsive:            5.819403

@<TRIPOS>MOLECULE
ZINC000291036115
 35 37 1 0 0
SMALL
USER_CHARGES


@<TRIPOS>ATOM
      1 C1          0.5078    1.7500   50.9481 C.3     1  <0>        -0.1500
      2 C2         -0.6141    1.6721   49.9106 C.3     1  <0>        -0.0400
      3 H3         -0.6555    0.6652   49.4952 H       1  <0>         0.0900
      4 C4         -0.3419    2.6760   48.7886 C.3     1  <0>        -0.0200
      5 C5          0.3932    1.9885   47.6670 C.2     1  <0>         0.1900
      6 N6          0.3701    2.3211   46.3987 N.2     1  <0>        -0.4500
      7 C7          1.1671    1.4338   45.7772 C.2     1  <0>         0.1500
      8 C8          1.4726    1.3896   44.3021 C.3     1  <0>         0.2300
      9 N9          0.5455    0.4696   43.6388 N.pl3   1  <0>        -0.3900
     10 C10        -0.7384    0.2436   43.9674 C.2     1  <0>         0.2600
     11 N11        -1.2204   -0.6433   43.1351 N.2     1  <0>        -0.5400
     12 C12        -0.2785   -1.0054   42.2650 C.2     1  <0>         0.2000
     13 N13         0.8193   -0.3470   42.5295 N.2     1  <0>        -0.3100
     14 N14         1.6259    0.6221   46.6823 N.2     1  <0>        -0.3600
     15 O15         1.1979    0.9271   47.7756 O.3     1  <0>         0.0900
     16 C16        -1.9301    1.9986   50.5684 C.ar    1  <0>        -0.0900
     17 C17        -2.0976    3.2091   51.2144 C.ar    1  <0>        -0.0700
     18 C18        -3.3042    3.5104   51.8178 C.ar    1  <0>        -0.1400
     19 C19        -4.3454    2.5994   51.7754 C.ar    1  <0>         0.1300
     20 F20        -5.5251    2.8930   52.3645 F       1  <0>        -0.1200
     21 C21        -4.1767    1.3860   51.1277 C.ar    1  <0>        -0.1300
     22 Br22       -5.5978    0.1400   51.0678 Br      1  <0>        -0.0200
     23 C23        -2.9706    1.0894   50.5204 C.ar    1  <0>        -0.0500
     24 H24         1.4596    1.5138   50.4723 H       1  <0>         0.0600
     25 H25         0.5491    2.7568   51.3635 H       1  <0>         0.0700
     26 H26         0.3138    1.0348   51.7474 H       1  <0>         0.0700
     27 H27        -1.2875    3.0695   48.4159 H       1  <0>         0.1200
     28 H28         0.2661    3.4948   49.1733 H       1  <0>         0.1100
     29 H29         1.3604    2.3872   43.8778 H       1  <0>         0.1300
     30 H30         2.4957    1.0444   44.1532 H       1  <0>         0.1200
     31 H31        -1.2776    0.7119   44.7776 H       1  <0>         0.2200
     32 H32        -0.4032   -1.7232   41.4678 H       1  <0>         0.2200
     33 H33        -1.2851    3.9199   51.2479 H       1  <0>         0.1400
     34 H34        -3.4344    4.4562   52.3226 H       1  <0>         0.1500
     35 H35        -2.8385    0.1439   50.0155 H       1  <0>         0.1400
@<TRIPOS>BOND
     1     1     2    1
     2     1    24    1
     3     1    25    1
     4     1    26    1
     5     2     3    1
     6     2     4    1
     7     2    16    1
     8     4     5    1
     9     4    27    1
    10     4    28    1
    11     5    15    1
    12     5     6    2
    13     6     7    1
    14     7     8    1
    15     7    14    2
    16     8     9    1
    17     8    29    1
    18     8    30    1
    19     9    13    1
    20     9    10    1
    21    10    11    2
    22    10    31    1
    23    11    12    1
    24    12    13    2
    25    12    32    1
    26    14    15    1
    27    16    23   ar
    28    16    17   ar
    29    17    18   ar
    30    17    33    1
    31    18    19   ar
    32    18    34    1
    33    19    20    1
    34    19    21   ar
    35    21    22    1
    36    21    23   ar
    37    23    35    1
@<TRIPOS>SUBSTRUCTURE
     1 <0>         1 TEMP              0 ****  ****    0 ROOT


##########                                Name:    ZINC001272744746
##########                DOCK_Rotatable_Bonds:                   6
##########                         Heavy_Atoms:                  25
##########                    Molecular_Weight:             348.417
##########                DOCK_Rotatable_Bonds:                   6
##########                       Formal_Charge:           0.0299999
##########                     HBond_Acceptors:                   6
##########                        HBond_Donors:                   1
##########                         Heavy_Atoms:                  25
##########                          Grid_Score:          -30.390514
##########                     Grid_vdw_energy:          -29.223606
##########                      Grid_es_energy:           -1.166907
##########           Internal_energy_repulsive:           26.588472

@<TRIPOS>MOLECULE
ZINC001272744746
 50 52 1 0 0
SMALL
USER_CHARGES


@<TRIPOS>ATOM
      1 C1         -1.2938    0.8986   49.4077 C.2     1  ZINC001272744746   -0.1700
      2 C2         -2.4412    1.5094   49.5702 C.2     1  ZINC001272744746   -0.1700
      3 C3         -2.9145    1.8679   50.9553 C.3     1  ZINC001272744746    0.1500
      4 N4         -4.3789    1.8451   50.9921 N.am    1  ZINC001272744746   -0.6100
      5 C5         -5.2162    2.9878   51.3814 C.3     1  ZINC001272744746    0.0700
      6 C6         -6.6287    2.6486   50.8752 C.3     1  ZINC001272744746    0.1100
      7 C7         -6.5995    1.1105   50.8149 C.3     1  ZINC001272744746   -0.1500
      8 C8         -5.1297    0.7772   50.6684 C.2     1  ZINC001272744746    0.5200
      9 O9         -4.6928   -0.2985   50.3178 O.2     1  ZINC001272744746   -0.5200
     10 C10        -6.8551    3.2336   49.4880 C.3     1  ZINC001272744746   -0.1000
     11 C11        -6.8579    4.7636   49.5763 C.3     1  ZINC001272744746   -0.1200
     12 C12        -7.9244    5.2045   50.5828 C.3     1  ZINC001272744746   -0.1200
     13 C13        -7.6292    4.5738   51.9454 C.3     1  ZINC001272744746    0.0500
     14 N14        -7.6412    3.1093   51.8204 N.3     1  ZINC001272744746   -0.5100
     15 C15        -7.4690    2.4676   53.1306 C.3     1  ZINC001272744746    0.0800
     16 C16        -8.7136    1.6919   53.4774 C.ar    1  ZINC001272744746   -0.0200
     17 C17        -9.5271    1.2076   52.4704 C.ar    1  ZINC001272744746   -0.1700
     18 C18       -10.6716    0.4945   52.7844 C.ar    1  ZINC001272744746    0.1200
     19 F19       -11.4654    0.0221   51.7985 F       1  ZINC001272744746   -0.1200
     20 C20       -11.0025    0.2649   54.1118 C.ar    1  ZINC001272744746    0.0400
     21 O21       -12.1262   -0.4361   54.4229 O.3     1  ZINC001272744746   -0.4700
     22 C22       -10.1824    0.7525   55.1239 C.ar    1  ZINC001272744746    0.1300
     23 O23       -10.5023    0.5297   56.4267 O.3     1  ZINC001272744746   -0.3000
     24 C24        -9.6296    1.0842   57.4131 C.3     1  ZINC001272744746    0.0200
     25 C25        -9.0359    1.4614   54.8021 C.ar    1  ZINC001272744746   -0.1800
     26 H26        -0.6869    0.6519   50.2664 H       1  ZINC001272744746    0.1000
     27 H27        -0.9567    0.6377   48.4154 H       1  ZINC001272744746    0.1000
     28 H28        -3.0481    1.7560   48.7116 H       1  ZINC001272744746    0.1100
     29 H29        -2.5217    1.1463   51.6716 H       1  ZINC001272744746    0.0900
     30 H30        -2.5600    2.8659   51.2135 H       1  ZINC001272744746    0.0800
     31 H31        -5.2206    3.1008   52.4655 H       1  ZINC001272744746    0.0700
     32 H32        -4.8542    3.9002   50.9073 H       1  ZINC001272744746    0.0900
     33 H33        -7.0019    0.6845   51.7340 H       1  ZINC001272744746    0.1100
     34 H34        -7.1577    0.7514   49.9502 H       1  ZINC001272744746    0.1100
     35 H35        -6.0558    2.9092   48.8217 H       1  ZINC001272744746    0.0700
     36 H36        -7.8141    2.8899   49.1005 H       1  ZINC001272744746    0.0800
     37 H37        -5.8790    5.1115   49.9063 H       1  ZINC001272744746    0.0600
     38 H38        -7.0847    5.1849   48.5968 H       1  ZINC001272744746    0.0700
     39 H39        -7.9110    6.2905   50.6744 H       1  ZINC001272744746    0.0700
     40 H40        -8.9062    4.8806   50.2374 H       1  ZINC001272744746    0.0700
     41 H41        -6.6490    4.9008   52.2925 H       1  ZINC001272744746    0.0400
     42 H42        -8.3901    4.8835   52.6618 H       1  ZINC001272744746    0.0900
     43 H43        -6.6166    1.7893   53.0937 H       1  ZINC001272744746    0.1000
     44 H44        -7.2935    3.2309   53.8887 H       1  ZINC001272744746    0.0600
     45 H45        -9.2699    1.3862   51.4368 H       1  ZINC001272744746    0.1400
     46 H46       -12.2717   -0.5446   55.3727 H       1  ZINC001272744746    0.3900
     47 H47        -9.5965    2.1679   57.3009 H       1  ZINC001272744746    0.0600
     48 H48        -9.9988    0.8330   58.4074 H       1  ZINC001272744746    0.1100
     49 H49        -8.6278    0.6748   57.2834 H       1  ZINC001272744746    0.0600
     50 H50        -8.3979    1.8408   55.5866 H       1  ZINC001272744746    0.1400
@<TRIPOS>BOND
     1     1     2    2
     2     1    26    1
     3     1    27    1
     4     2     3    1
     5     2    28    1
     6     3     4    1
     7     3    29    1
     8     3    30    1
     9     4     8   am
    10     4     5    1
    11     5     6    1
    12     5    31    1
    13     5    32    1
    14     6    14    1
    15     6     7    1
    16     6    10    1
    17     7     8    1
    18     7    33    1
    19     7    34    1
    20     8     9    2
    21    10    11    1
    22    10    35    1
    23    10    36    1
    24    11    12    1
    25    11    37    1
    26    11    38    1
    27    12    13    1
    28    12    39    1
    29    12    40    1
    30    13    14    1
    31    13    41    1
    32    13    42    1
    33    14    15    1
    34    15    16    1
    35    15    43    1
    36    15    44    1
    37    16    25   ar
    38    16    17   ar
    39    17    18   ar
    40    17    45    1
    41    18    19    1
    42    18    20   ar
    43    20    21    1
    44    20    22   ar
    45    21    46    1
    46    22    23    1
    47    22    25   ar
    48    23    24    1
    49    24    47    1
    50    24    48    1
    51    24    49    1
    52    25    50    1
@<TRIPOS>SUBSTRUCTURE
     1 ZINC001272744746        1 TEMP              0 ****  ****    0 ROOT


##########                                Name:    ZINC000416583757
##########                DOCK_Rotatable_Bonds:                   7
##########                         Heavy_Atoms:                  20
##########                    Molecular_Weight:             380.693
##########                DOCK_Rotatable_Bonds:                   7
##########                       Formal_Charge:         1.04308e-07
##########                     HBond_Acceptors:                   7
##########                        HBond_Donors:                   1
##########                         Heavy_Atoms:                  20
##########                          Grid_Score:          -30.388905
##########                     Grid_vdw_energy:          -30.609196
##########                      Grid_es_energy:            0.220291
##########           Internal_energy_repulsive:            8.989947

@<TRIPOS>MOLECULE
ZINC000416583757
 35 35 1 0 0
SMALL
USER_CHARGES


@<TRIPOS>ATOM
      1 C1          1.5036    0.7967   44.9036 C.3     1  ZINC000416583757   -0.1500
      2 C2          0.1342    1.1599   44.3263 C.3     1  ZINC000416583757   -0.0200
      3 H3          0.2206    2.0682   43.7299 H       1  ZINC000416583757    0.1200
      4 C4         -0.3477    0.0589   43.4763 C.1     1  ZINC000416583757    0.2100
      5 N5         -0.7195   -0.7908   42.8205 N.1     1  ZINC000416583757   -0.4200
      6 C6         -0.8559    1.3926   45.4693 C.3     1  ZINC000416583757    0.1300
      7 N7         -0.3725    2.4835   46.3194 N.am    1  ZINC000416583757   -1.0100
      8 C8         -0.1908    3.8243   45.7577 C.3     1  ZINC000416583757    0.0800
      9 S9         -0.0314    2.2010   47.9150 S.o2    1  ZINC000416583757    2.7800
     10 O10         0.8727    1.1050   47.9441 O.2     1  ZINC000416583757   -0.9700
     11 O11         0.2616    3.4657   48.4928 O.2     1  ZINC000416583757   -0.9700
     12 N12        -1.4292    1.6732   48.6292 N.am    1  ZINC000416583757   -1.1300
     13 C13        -1.4419    1.3385   50.0554 C.3     1  ZINC000416583757    0.1600
     14 C14        -2.7602    1.7524   50.6568 C.ar    1  ZINC000416583757   -0.0800
     15 C15        -2.8478    2.9190   51.3926 C.ar    1  ZINC000416583757   -0.0800
     16 C16        -4.0582    3.2998   51.9446 C.ar    1  ZINC000416583757   -0.0300
     17 Cl17       -4.1684    4.7655   52.8683 Cl      1  ZINC000416583757   -0.0500
     18 C18        -5.1803    2.5126   51.7598 C.ar    1  ZINC000416583757   -0.0700
     19 C19        -5.0920    1.3452   51.0233 C.ar    1  ZINC000416583757   -0.0800
     20 Br20       -6.6256    0.2683   50.7702 Br      1  ZINC000416583757   -0.0300
     21 C21        -3.8828    0.9682   50.4675 C.ar    1  ZINC000416583757   -0.0700
     22 H22         2.1756    0.5127   44.0939 H       1  ZINC000416583757    0.0700
     23 H23         1.9147    1.6567   45.4323 H       1  ZINC000416583757    0.0800
     24 H24         1.3961   -0.0382   45.5962 H       1  ZINC000416583757    0.0700
     25 H25        -1.8302    1.6568   45.0581 H       1  ZINC000416583757    0.0900
     26 H26        -0.9464    0.4826   46.0624 H       1  ZINC000416583757    0.1000
     27 H27        -1.1147    4.3924   45.8672 H       1  ZINC000416583757    0.0700
     28 H28         0.6141    4.3341   46.2872 H       1  ZINC000416583757    0.0800
     29 H29         0.0633    3.7442   44.7008 H       1  ZINC000416583757    0.0800
     30 H30        -2.2394    1.5857   48.1033 H       1  ZINC000416583757    0.4200
     31 H31        -1.3084    0.2636   50.1775 H       1  ZINC000416583757    0.0800
     32 H32        -0.6313    1.8648   50.5594 H       1  ZINC000416583757    0.1000
     33 H33        -1.9714    3.5334   51.5370 H       1  ZINC000416583757    0.1500
     34 H34        -6.1253    2.8092   52.1907 H       1  ZINC000416583757    0.1500
     35 H35        -3.8138    0.0565   49.8924 H       1  ZINC000416583757    0.1400
@<TRIPOS>BOND
     1     1     2    1
     2     1    22    1
     3     1    23    1
     4     1    24    1
     5     2     3    1
     6     2     4    1
     7     2     6    1
     8     4     5    3
     9     6     7    1
    10     6    25    1
    11     6    26    1
    12     7     8    1
    13     7     9   am
    14     8    27    1
    15     8    28    1
    16     8    29    1
    17     9    10    2
    18     9    11    2
    19     9    12   am
    20    12    13    1
    21    12    30    1
    22    13    14    1
    23    13    31    1
    24    13    32    1
    25    14    21   ar
    26    14    15   ar
    27    15    16   ar
    28    15    33    1
    29    16    17    1
    30    16    18   ar
    31    18    19   ar
    32    18    34    1
    33    19    20    1
    34    19    21   ar
    35    21    35    1
@<TRIPOS>SUBSTRUCTURE
     1 ZINC000416583757        1 TEMP              0 ****  ****    0 ROOT


##########                                Name:    ZINC000945148121
##########                DOCK_Rotatable_Bonds:                   6
##########                         Heavy_Atoms:                  24
##########                    Molecular_Weight:             332.446
##########                DOCK_Rotatable_Bonds:                   6
##########                       Formal_Charge:           0.0100009
##########                     HBond_Acceptors:                   6
##########                        HBond_Donors:                   2
##########                         Heavy_Atoms:                  24
##########                          Grid_Score:          -30.383120
##########                     Grid_vdw_energy:          -29.210981
##########                      Grid_es_energy:           -1.172139
##########           Internal_energy_repulsive:           19.038950

@<TRIPOS>MOLECULE
ZINC000945148121
 52 54 1 0 0
SMALL
USER_CHARGES


@<TRIPOS>ATOM
      1 O1         -2.8646    1.9212   48.8515 O.2     1  ZINC000945148121   -0.5100
      2 C2         -2.4343    1.7703   49.9754 C.2     1  ZINC000945148121    0.5200
      3 C3         -0.9499    1.6446   50.2032 C.3     1  ZINC000945148121   -0.0500
      4 C4         -0.2365    1.6404   48.8758 C.2     1  ZINC000945148121    0.0100
      5 C5         -0.1976    2.6582   47.9949 C.2     1  ZINC000945148121   -0.0500
      6 N6          0.5536    2.2339   46.9323 N.pl3   1  ZINC000945148121   -0.5700
      7 C7          0.9482    0.9707   47.2010 C.2     1  ZINC000945148121    0.1800
      8 N8          0.4761    0.6241   48.3673 N.2     1  ZINC000945148121   -0.4700
      9 N9         -3.2831    1.7205   51.0211 N.am    1  ZINC000945148121   -0.7300
     10 C10        -4.7261    1.8427   50.7995 C.3     1  ZINC000945148121    0.1500
     11 C11        -5.3503    0.4473   50.7244 C.3     1  ZINC000945148121   -0.1400
     12 C12        -6.8532    0.5783   50.4582 C.3     1  ZINC000945148121    0.1100
     13 N13        -7.4415    1.4479   51.4860 N.am    1  ZINC000945148121   -0.6100
     14 C14        -8.4958    1.0326   52.2157 C.2     1  ZINC000945148121    0.5200
     15 O15        -8.9671   -0.0689   52.0277 O.2     1  ZINC000945148121   -0.5400
     16 C16        -9.0891    1.9370   53.2650 C.3     1  ZINC000945148121   -0.1000
     17 C17        -9.8438    3.0560   52.5999 C.3     1  ZINC000945148121   -0.1200
     18 C18        -9.7627    4.3746   53.3925 C.3     1  ZINC000945148121   -0.1200
     19 C19        -9.9111    4.1684   54.9121 C.3     1  ZINC000945148121   -0.1200
     20 C20       -10.9842    3.1711   55.2557 C.3     1  ZINC000945148121   -0.1200
     21 C21       -10.3295    1.7843   55.4207 C.3     1  ZINC000945148121   -0.1200
     22 C22       -10.0728    1.1365   54.1429 C.3     1  ZINC000945148121   -0.1000
     23 C23        -6.8582    2.7788   51.7038 C.3     1  ZINC000945148121    0.1100
     24 C24        -5.3552    2.6231   51.9560 C.3     1  ZINC000945148121   -0.1400
     25 H25        -0.6013    2.4874   50.8003 H       1  ZINC000945148121    0.1000
     26 H26        -0.7407    0.7142   50.7311 H       1  ZINC000945148121    0.1000
     27 H27        -0.6691    3.6236   48.1055 H       1  ZINC000945148121    0.1800
     28 H28         0.7635    2.7452   46.1351 H       1  ZINC000945148121    0.4200
     29 H29         1.5570    0.3513   46.5591 H       1  ZINC000945148121    0.2100
     30 H30        -2.9386    1.6037   51.9203 H       1  ZINC000945148121    0.4000
     31 H31        -4.9064    2.3717   49.8637 H       1  ZINC000945148121    0.0900
     32 H32        -4.8853   -0.1161   49.9154 H       1  ZINC000945148121    0.0800
     33 H33        -5.1922   -0.0733   51.6687 H       1  ZINC000945148121    0.0700
     34 H34        -7.0130    1.0171   49.4733 H       1  ZINC000945148121    0.0700
     35 H35        -7.3193   -0.4060   50.5020 H       1  ZINC000945148121    0.1000
     36 H36        -8.2935    2.3471   53.8871 H       1  ZINC000945148121    0.1000
     37 H37        -9.4305    3.2171   51.6042 H       1  ZINC000945148121    0.0700
     38 H38       -10.8902    2.7668   52.5027 H       1  ZINC000945148121    0.0700
     39 H39        -8.7998    4.8455   53.1941 H       1  ZINC000945148121    0.0600
     40 H40       -10.5545    5.0404   53.0493 H       1  ZINC000945148121    0.0700
     41 H41        -8.9611    3.8169   55.3147 H       1  ZINC000945148121    0.0600
     42 H42       -10.1563    5.1240   55.3755 H       1  ZINC000945148121    0.0600
     43 H43       -11.4682    3.4608   56.1884 H       1  ZINC000945148121    0.0600
     44 H44       -11.7211    3.1351   54.4534 H       1  ZINC000945148121    0.0700
     45 H45        -9.3857    1.9006   55.9534 H       1  ZINC000945148121    0.0600
     46 H46       -10.9903    1.1500   56.0115 H       1  ZINC000945148121    0.0600
     47 H47       -11.0155    1.0271   53.6069 H       1  ZINC000945148121    0.0700
     48 H48        -9.6563    0.1461   54.3266 H       1  ZINC000945148121    0.0700
     49 H49        -7.0184    3.3970   50.8204 H       1  ZINC000945148121    0.0700
     50 H50        -7.3274    3.2463   52.5695 H       1  ZINC000945148121    0.1000
     51 H51        -5.1970    2.0819   52.8887 H       1  ZINC000945148121    0.0700
     52 H52        -4.8937    3.6083   52.0236 H       1  ZINC000945148121    0.0800
@<TRIPOS>BOND
     1     1     2    2
     2     2     3    1
     3     2     9   am
     4     3     4    1
     5     3    25    1
     6     3    26    1
     7     4     8    1
     8     4     5    2
     9     5     6    1
    10     5    27    1
    11     6     7    1
    12     6    28    1
    13     7     8    2
    14     7    29    1
    15     9    10    1
    16     9    30    1
    17    10    24    1
    18    10    11    1
    19    10    31    1
    20    11    12    1
    21    11    32    1
    22    11    33    1
    23    12    13    1
    24    12    34    1
    25    12    35    1
    26    13    14   am
    27    13    23    1
    28    14    15    2
    29    14    16    1
    30    16    22    1
    31    16    17    1
    32    16    36    1
    33    17    18    1
    34    17    37    1
    35    17    38    1
    36    18    19    1
    37    18    39    1
    38    18    40    1
    39    19    20    1
    40    19    41    1
    41    19    42    1
    42    20    21    1
    43    20    43    1
    44    20    44    1
    45    21    22    1
    46    21    45    1
    47    21    46    1
    48    22    47    1
    49    22    48    1
    50    23    24    1
    51    23    49    1
    52    23    50    1
    53    24    51    1
    54    24    52    1
@<TRIPOS>SUBSTRUCTURE
     1 ZINC000945148121        1 TEMP              0 ****  ****    0 ROOT


##########                                Name:    ZINC001053792610
##########                DOCK_Rotatable_Bonds:                   5
##########                         Heavy_Atoms:                  25
##########                    Molecular_Weight:             347.374
##########                DOCK_Rotatable_Bonds:                   5
##########                       Formal_Charge:          -0.0400001
##########                     HBond_Acceptors:                   9
##########                        HBond_Donors:                   2
##########                         Heavy_Atoms:                  25
##########                          Grid_Score:          -30.382076
##########                     Grid_vdw_energy:          -29.836086
##########                      Grid_es_energy:           -0.545990
##########           Internal_energy_repulsive:            5.299405

@<TRIPOS>MOLECULE
ZINC001053792610
 46 49 1 0 0
SMALL
USER_CHARGES


@<TRIPOS>ATOM
      1 C1         -7.0992    1.1478   51.5211 C.3     1  ZINC001053792610   -0.1000
      2 C2         -5.6543    1.2157   51.0982 C.ar    1  ZINC001053792610    0.0800
      3 C3         -5.0513    0.1147   50.5168 C.ar    1  ZINC001053792610    0.0600
      4 N4         -3.7842    0.1742   50.1460 N.ar    1  ZINC001053792610   -0.4200
      5 C5         -3.0933    1.2851   50.3306 C.ar    1  ZINC001053792610    0.0800
      6 C6         -1.6486    1.3531   49.9074 C.3     1  ZINC001053792610    0.0700
      7 N7         -1.5556    1.9789   48.5816 N.3     1  ZINC001053792610   -0.4500
      8 C8         -0.5195    1.3238   47.7590 C.3     1  ZINC001053792610   -0.0100
      9 C9         -0.0948    2.7153   47.2940 C.3     1  ZINC001053792610    0.0800
     10 C10        -0.6936    3.1766   48.6212 C.3     1  ZINC001053792610   -0.0100
     11 C11         1.4212    2.9235   47.1520 C.3     1  ZINC001053792610   -0.1500
     12 C12         1.5857    3.0552   45.6116 C.3     1  ZINC001053792610    0.1100
     13 H13         2.4451    3.6768   45.3603 H       1  ZINC001053792610    0.1200
     14 N14         1.6877    1.7385   44.9774 N.am    1  ZINC001053792610   -0.7100
     15 C15         2.2493    1.6194   43.7581 C.2     1  ZINC001053792610    0.5000
     16 O16         2.6716    2.6022   43.1864 O.2     1  ZINC001053792610   -0.5100
     17 C17         2.3526    0.2652   43.1050 C.3     1  ZINC001053792610    0.0800
     18 H18         1.5473   -0.3855   43.4458 H       1  ZINC001053792610    0.1300
     19 C19         2.3260    0.4010   41.5702 C.3     1  ZINC001053792610    0.0500
     20 O20         3.6112   -0.1387   41.1461 O.3     1  ZINC001053792610   -0.3200
     21 C21         4.3046   -0.5351   42.2192 C.2     1  ZINC001053792610    0.6500
     22 O22         5.4145   -1.0243   42.1478 O.2     1  ZINC001053792610   -0.5100
     23 N23         3.6622   -0.3441   43.3833 N.am    1  ZINC001053792610   -0.7100
     24 C24         0.2577    3.7581   45.2301 C.3     1  ZINC001053792610    0.0400
     25 O25        -0.7305    3.2031   46.1168 O.3     1  ZINC001053792610   -0.3300
     26 C26        -3.6965    2.3864   50.9123 C.ar    1  ZINC001053792610    0.0600
     27 N27        -4.9648    2.3287   51.2780 N.ar    1  ZINC001053792610   -0.4400
     28 H28        -7.7352    1.4599   50.6927 H       1  ZINC001053792610    0.0800
     29 H29        -7.3473    0.1248   51.8041 H       1  ZINC001053792610    0.0800
     30 H30        -7.2602    1.8095   52.3721 H       1  ZINC001053792610    0.0800
     31 H31        -5.6160   -0.7935   50.3661 H       1  ZINC001053792610    0.1700
     32 H32        -1.0861    1.9456   50.6291 H       1  ZINC001053792610    0.1000
     33 H33        -1.2350    0.3457   49.8635 H       1  ZINC001053792610    0.0600
     34 H34         0.2418    0.8105   48.3464 H       1  ZINC001053792610    0.0800
     35 H35        -0.9263    0.7038   46.9602 H       1  ZINC001053792610    0.0900
     36 H36        -1.2467    4.1130   48.5465 H       1  ZINC001053792610    0.1000
     37 H37         0.0199    3.1718   49.4452 H       1  ZINC001053792610    0.0800
     38 H38         1.7378    3.8361   47.6568 H       1  ZINC001053792610    0.1000
     39 H39         1.9697    2.0607   47.5298 H       1  ZINC001053792610    0.1000
     40 H40         1.3511    0.9523   45.4352 H       1  ZINC001053792610    0.4000
     41 H41         1.5082   -0.1837   41.1491 H       1  ZINC001053792610    0.1200
     42 H42         2.2369    1.4481   41.2808 H       1  ZINC001053792610    0.1100
     43 H43         4.0073   -0.5689   44.2615 H       1  ZINC001053792610    0.4400
     44 H44         0.3417    4.8339   45.3834 H       1  ZINC001053792610    0.0800
     45 H45        -0.0004    3.5420   44.1934 H       1  ZINC001053792610    0.0900
     46 H46        -3.1318    3.2946   51.0633 H       1  ZINC001053792610    0.1600
@<TRIPOS>BOND
     1     1     2    1
     2     1    28    1
     3     1    29    1
     4     1    30    1
     5     2    27   ar
     6     2     3   ar
     7     3     4   ar
     8     3    31    1
     9     4     5   ar
    10     5     6    1
    11     5    26   ar
    12     6     7    1
    13     6    32    1
    14     6    33    1
    15     7    10    1
    16     7     8    1
    17     8     9    1
    18     8    34    1
    19     8    35    1
    20     9    25    1
    21     9    10    1
    22     9    11    1
    23    10    36    1
    24    10    37    1
    25    11    12    1
    26    11    38    1
    27    11    39    1
    28    12    13    1
    29    12    14    1
    30    12    24    1
    31    14    15   am
    32    14    40    1
    33    15    16    2
    34    15    17    1
    35    17    18    1
    36    17    23    1
    37    17    19    1
    38    19    20    1
    39    19    41    1
    40    19    42    1
    41    20    21    1
    42    21    22    2
    43    21    23   am
    44    23    43    1
    45    24    25    1
    46    24    44    1
    47    24    45    1
    48    26    27   ar
    49    26    46    1
@<TRIPOS>SUBSTRUCTURE
     1 ZINC001053792610        1 TEMP              0 ****  ****    0 ROOT


##########                                Name:    ZINC000463741321
##########                DOCK_Rotatable_Bonds:                   7
##########                         Heavy_Atoms:                  26
##########                    Molecular_Weight:             354.467
##########                DOCK_Rotatable_Bonds:                   7
##########                       Formal_Charge:         -6.4075e-07
##########                     HBond_Acceptors:                   4
##########                        HBond_Donors:                   1
##########                         Heavy_Atoms:                  26
##########                          Grid_Score:          -30.378065
##########                     Grid_vdw_energy:          -29.573843
##########                      Grid_es_energy:           -0.804221
##########           Internal_energy_repulsive:           14.027069

@<TRIPOS>MOLECULE
ZINC000463741321
 53 55 1 0 0
SMALL
USER_CHARGES


@<TRIPOS>ATOM
      1 C1         -6.2755    0.5355   51.0571 C.3     1  ZINC000463741321   -0.1500
      2 C2         -5.3227    1.6975   50.7690 C.3     1  ZINC000463741321   -0.1100
      3 H3         -5.7575    2.3432   50.0060 H       1  ZINC000463741321    0.1000
      4 C4         -5.0977    2.5022   52.0506 C.3     1  ZINC000463741321   -0.0900
      5 C5         -5.6352    3.9223   51.8622 C.3     1  ZINC000463741321   -0.0800
      6 C6         -7.1377    3.8806   51.7551 C.ar    1  ZINC000463741321   -0.1200
      7 C7         -7.8940    3.4266   52.8187 C.ar    1  ZINC000463741321   -0.0900
      8 C8         -9.2728    3.3882   52.7208 C.ar    1  ZINC000463741321   -0.1300
      9 C9         -9.8959    3.8033   51.5590 C.ar    1  ZINC000463741321   -0.1000
     10 C10        -9.1415    4.2574   50.4936 C.ar    1  ZINC000463741321   -0.1500
     11 C11        -7.7614    4.3025   50.5929 C.ar    1  ZINC000463741321    0.1000
     12 F12        -7.0229    4.7462   49.5522 F       1  ZINC000463741321   -0.1400
     13 C13        -4.0049    1.1565   50.2775 C.2     1  ZINC000463741321    0.5200
     14 O14        -3.8720   -0.0335   50.0841 O.2     1  ZINC000463741321   -0.5300
     15 N15        -2.9739    1.9949   50.0527 N.am    1  ZINC000463741321   -0.7300
     16 C16        -1.6922    1.4687   49.5766 C.3     1  ZINC000463741321    0.1500
     17 H17        -1.7182    0.3792   49.5909 H       1  ZINC000463741321    0.1000
     18 C18        -1.4392    1.9552   48.1469 C.3     1  ZINC000463741321   -0.1300
     19 C19        -0.0713    1.4508   47.6791 C.3     1  ZINC000463741321   -0.1200
     20 C20         1.0077    1.9484   48.6436 C.3     1  ZINC000463741321    0.0600
     21 N21         0.7210    1.4558   49.9970 N.3     1  ZINC000463741321   -0.4800
     22 C22         1.7554    1.7809   50.8775 C.ar    1  ZINC000463741321    0.1100
     23 C23         1.9667    3.1037   51.2451 C.ar    1  ZINC000463741321   -0.1700
     24 C24         2.9900    3.4216   52.1163 C.ar    1  ZINC000463741321   -0.0900
     25 C25         3.8042    2.4249   52.6222 C.ar    1  ZINC000463741321   -0.1500
     26 C26         3.5966    1.1070   52.2584 C.ar    1  ZINC000463741321   -0.0900
     27 C27         2.5715    0.7814   51.3920 C.ar    1  ZINC000463741321   -0.1400
     28 C28        -0.5664    1.9650   50.4867 C.3     1  ZINC000463741321    0.0500
     29 H29        -5.8407   -0.1103   51.8200 H       1  ZINC000463741321    0.0600
     30 H30        -7.2287    0.9268   51.4125 H       1  ZINC000463741321    0.0700
     31 H31        -6.4359   -0.0379   50.1441 H       1  ZINC000463741321    0.0600
     32 H32        -5.6211    2.0224   52.8776 H       1  ZINC000463741321    0.0700
     33 H33        -4.0309    2.5437   52.2709 H       1  ZINC000463741321    0.0700
     34 H34        -5.3487    4.5355   52.7165 H       1  ZINC000463741321    0.0800
     35 H35        -5.2177    4.3509   50.9511 H       1  ZINC000463741321    0.0800
     36 H36        -7.4082    3.1013   53.7266 H       1  ZINC000463741321    0.1300
     37 H37        -9.8630    3.0332   53.5526 H       1  ZINC000463741321    0.1300
     38 H38       -10.9729    3.7726   51.4835 H       1  ZINC000463741321    0.1300
     39 H39        -9.6286    4.5811   49.5857 H       1  ZINC000463741321    0.1400
     40 H40        -3.0805    2.9467   50.2062 H       1  ZINC000463741321    0.4000
     41 H41        -2.2156    1.5673   47.4875 H       1  ZINC000463741321    0.0700
     42 H42        -1.4525    3.0449   48.1253 H       1  ZINC000463741321    0.0600
     43 H43        -0.0711    0.3609   47.6637 H       1  ZINC000463741321    0.0800
     44 H44         0.1332    1.8295   46.6776 H       1  ZINC000463741321    0.0800
     45 H45         1.9812    1.5790   48.3213 H       1  ZINC000463741321    0.0900
     46 H46         1.0162    3.0383   48.6481 H       1  ZINC000463741321    0.0500
     47 H47         1.3316    3.8827   50.8497 H       1  ZINC000463741321    0.1200
     48 H48         3.1548    4.4499   52.4025 H       1  ZINC000463741321    0.1200
     49 H49         4.6042    2.6764   53.3028 H       1  ZINC000463741321    0.1200
     50 H50         4.2343    0.3310   52.6553 H       1  ZINC000463741321    0.1200
     51 H51         2.4097   -0.2480   51.1085 H       1  ZINC000463741321    0.1300
     52 H52        -0.5510    3.0549   50.4827 H       1  ZINC000463741321    0.0500
     53 H53        -0.7354    1.6080   51.5027 H       1  ZINC000463741321    0.0900
@<TRIPOS>BOND
     1     1     2    1
     2     1    29    1
     3     1    30    1
     4     1    31    1
     5     2     3    1
     6     2     4    1
     7     2    13    1
     8     4     5    1
     9     4    32    1
    10     4    33    1
    11     5     6    1
    12     5    34    1
    13     5    35    1
    14     6    11   ar
    15     6     7   ar
    16     7     8   ar
    17     7    36    1
    18     8     9   ar
    19     8    37    1
    20     9    10   ar
    21     9    38    1
    22    10    11   ar
    23    10    39    1
    24    11    12    1
    25    13    14    2
    26    13    15   am
    27    15    16    1
    28    15    40    1
    29    16    17    1
    30    16    28    1
    31    16    18    1
    32    18    19    1
    33    18    41    1
    34    18    42    1
    35    19    20    1
    36    19    43    1
    37    19    44    1
    38    20    21    1
    39    20    45    1
    40    20    46    1
    41    21    22    1
    42    21    28    1
    43    22    27   ar
    44    22    23   ar
    45    23    24   ar
    46    23    47    1
    47    24    25   ar
    48    24    48    1
    49    25    26   ar
    50    25    49    1
    51    26    27   ar
    52    26    50    1
    53    27    51    1
    54    28    52    1
    55    28    53    1
@<TRIPOS>SUBSTRUCTURE
     1 ZINC000463741321        1 TEMP              0 ****  ****    0 ROOT


##########                                Name:    ZINC000011972961
##########                DOCK_Rotatable_Bonds:                   6
##########                         Heavy_Atoms:                  28
##########                    Molecular_Weight:             397.501
##########                DOCK_Rotatable_Bonds:                   6
##########                       Formal_Charge:                   0
##########                     HBond_Acceptors:                   8
##########                        HBond_Donors:                   1
##########                         Heavy_Atoms:                  28
##########                          Grid_Score:          -30.372858
##########                     Grid_vdw_energy:          -30.372858
##########                      Grid_es_energy:            0.000000
##########           Internal_energy_repulsive:           22.450710

@<TRIPOS>MOLECULE
ZINC000011972961
 51 54 1 0 0
SMALL
USER_CHARGES


@<TRIPOS>ATOM
      1 C1         -1.1641    3.9974   51.7249 C.3              0.0000
      2 C2         -2.6249    3.6318   51.7826 C.2              0.0000
      3 C3         -3.5306    4.4030   52.3976 C.2              0.0000
      4 C4         -3.2268    5.6688   53.0762 C.2              0.0000
      5 O5         -3.2752    6.7166   52.4594 O.2              0.0000
      6 N6         -2.8943    5.6703   54.3822 N.am             0.0000
      7 C7         -2.5911    6.9336   55.0594 C.3              0.0000
      8 C8         -2.8361    4.4088   55.1248 C.3              0.0000
      9 H9         -3.3641    3.6238   54.5835 H                0.0000
     10 C10        -1.3655    3.9968   55.3787 C.3              0.0000
     11 C11        -1.1315    4.5033   56.8248 C.3              0.0000
     12 O12        -2.3943    4.2520   57.4782 O.3              0.0000
     13 C13        -3.4310    4.5852   56.5353 C.3              0.0000
     14 S14        -5.1312    3.6920   52.2800 S.3              0.0000
     15 C15        -4.5097    2.3219   51.3695 C.ar             0.0000
     16 N16        -5.1242    1.2487   50.8592 N.ar             0.0000
     17 C17        -4.4522    0.3314   50.2020 C.ar             0.0000
     18 N18        -3.1483    0.4160   50.0106 N.ar             0.0000
     19 C19        -2.4495    1.4398   50.4768 C.ar             0.0000
     20 N20        -1.0873    1.5122   50.2675 N.pl3            0.0000
     21 C21        -0.4899    0.8597   49.0997 C.3              0.0000
     22 C22        -0.4851    1.8179   47.9367 C.ar             0.0000
     23 N23        -0.2622    3.1000   48.1494 N.ar             0.0000
     24 C24        -0.2482    3.9746   47.1624 C.ar             0.0000
     25 C25         0.0115    5.4290   47.4597 C.3              0.0000
     26 C26        -0.4685    3.5728   45.8587 C.ar             0.0000
     27 C27        -0.7065    2.2322   45.5959 C.ar             0.0000
     28 C28        -0.7088    1.3418   46.6584 C.ar             0.0000
     29 C29        -3.1268    2.4673   51.1924 C.ar             0.0000
     30 H30        -0.8930    4.2497   50.6996 H                0.0000
     31 H31        -0.9783    4.8551   52.3714 H                0.0000
     32 H32        -0.5643    3.1519   52.0617 H                0.0000
     33 H33        -3.4884    7.5513   55.0948 H                0.0000
     34 H34        -2.2505    6.7290   56.0744 H                0.0000
     35 H35        -1.8087    7.4602   54.5128 H                0.0000
     36 H36        -1.2494    2.9145   55.3220 H                0.0000
     37 H37        -0.6953    4.4958   54.6786 H                0.0000
     38 H38        -0.3321    3.9386   57.3046 H                0.0000
     39 H39        -0.9041    5.5693   56.8261 H                0.0000
     40 H40        -3.7438    5.6195   56.6786 H                0.0000
     41 H41        -4.2818    3.9169   56.6682 H                0.0000
     42 H42        -4.9837   -0.5209   49.8052 H                0.0000
     43 H43        -0.5254    1.9950   50.8936 H                0.0000
     44 H44         0.5335    0.5651   49.3320 H                0.0000
     45 H45        -1.0724   -0.0242   48.8398 H                0.0000
     46 H46         1.0825    5.6247   47.4084 H                0.0000
     47 H47        -0.5065    6.0477   46.7269 H                0.0000
     48 H48        -0.3538    5.6664   48.4589 H                0.0000
     49 H49        -0.4558    4.2938   45.0547 H                0.0000
     50 H50        -0.8820    1.8893   44.5868 H                0.0000
     51 H51        -0.8902    0.2905   46.4904 H                0.0000
@<TRIPOS>BOND
     1     1     2    1
     2     1    30    1
     3     1    31    1
     4     1    32    1
     5     2    29    1
     6     2     3    2
     7     3     4    1
     8     3    14    1
     9     4     5    2
    10     4     6   am
    11     6     7    1
    12     6     8    1
    13     7    33    1
    14     7    34    1
    15     7    35    1
    16     8     9    1
    17     8    13    1
    18     8    10    1
    19    10    11    1
    20    10    36    1
    21    10    37    1
    22    11    12    1
    23    11    38    1
    24    11    39    1
    25    12    13    1
    26    13    40    1
    27    13    41    1
    28    14    15    1
    29    15    29   ar
    30    15    16   ar
    31    16    17   ar
    32    17    18   ar
    33    17    42    1
    34    18    19   ar
    35    19    20    1
    36    19    29   ar
    37    20    21    1
    38    20    43    1
    39    21    22    1
    40    21    44    1
    41    21    45    1
    42    22    28   ar
    43    22    23   ar
    44    23    24   ar
    45    24    25    1
    46    24    26   ar
    47    25    46    1
    48    25    47    1
    49    25    48    1
    50    26    27   ar
    51    26    49    1
    52    27    28   ar
    53    27    50    1
    54    28    51    1
@<TRIPOS>SUBSTRUCTURE
     1         1 TEMP              0 ****  ****    0 ROOT


##########                                Name:    ZINC000281092425
##########                DOCK_Rotatable_Bonds:                   8
##########                         Heavy_Atoms:                  23
##########                    Molecular_Weight:             332.304
##########                DOCK_Rotatable_Bonds:                   8
##########                       Formal_Charge:         2.98023e-08
##########                     HBond_Acceptors:                   9
##########                        HBond_Donors:                   2
##########                         Heavy_Atoms:                  23
##########                          Grid_Score:          -30.370031
##########                     Grid_vdw_energy:          -28.530485
##########                      Grid_es_energy:           -1.839547
##########           Internal_energy_repulsive:           14.776958

@<TRIPOS>MOLECULE
ZINC000281092425
 41 42 1 0 0
SMALL
USER_CHARGES


@<TRIPOS>ATOM
      1 O1         -8.4899    0.7154   52.0712 O.2     1  ZINC000281092425   -0.1800
      2 N2         -7.6486    1.5905   52.1709 N.pl3   1  ZINC000281092425    0.0400
      3 O3         -7.9147    2.6279   52.7509 O.2     1  ZINC000281092425   -0.1500
      4 C4         -6.3009    1.3907   51.5925 C.ar    1  ZINC000281092425   -0.1200
      5 C5         -6.0000    0.2135   50.9348 C.ar    1  ZINC000281092425    0.0200
      6 C6         -4.7432    0.0232   50.3935 C.ar    1  ZINC000281092425   -0.2200
      7 C7         -3.7786    1.0163   50.5092 C.ar    1  ZINC000281092425    0.3000
      8 N8         -2.5081    0.8245   49.9618 N.pl3   1  ZINC000281092425   -0.7200
      9 C9         -2.0172    1.7259   48.9164 C.3     1  ZINC000281092425    0.1200
     10 C10        -0.6167    1.2886   48.4824 C.3     1  ZINC000281092425   -0.0900
     11 H11        -0.4970    0.2205   48.6636 H       1  ZINC000281092425    0.0900
     12 C12        -0.4316    1.5769   46.9913 C.3     1  ZINC000281092425    0.0800
     13 O13        -0.6718    2.9631   46.7407 O.3     1  ZINC000281092425   -0.5700
     14 C14         0.4309    2.0625   49.2853 C.3     1  ZINC000281092425   -0.1100
     15 H15         0.3448    3.1335   49.1014 H       1  ZINC000281092425    0.0900
     16 C16         0.3067    1.7503   50.8016 C.3     1  ZINC000281092425   -0.1600
     17 C17         1.7644    1.9863   51.2708 C.3     1  ZINC000281092425    0.0500
     18 O18         2.5868    1.5138   50.1921 O.3     1  ZINC000281092425   -0.3900
     19 C19         1.8540    1.5616   48.9582 C.3     1  ZINC000281092425    0.0700
     20 C20        -4.0795    2.1999   51.1695 C.ar    1  ZINC000281092425   -0.2800
     21 C21        -5.3428    2.3887   51.7067 C.ar    1  ZINC000281092425    0.2300
     22 O22        -5.6407    3.5464   52.3532 O.3     1  ZINC000281092425   -0.2900
     23 C23        -4.8614    3.8635   53.5082 C.3     1  ZINC000281092425    0.4100
     24 F24        -3.9918    4.9179   53.2089 F       1  ZINC000281092425   -0.1900
     25 F25        -5.7102    4.2415   54.5541 F       1  ZINC000281092425   -0.1900
     26 H26        -6.7487   -0.5596   50.8438 H       1  ZINC000281092425    0.1600
     27 H27        -4.5103   -0.8981   49.8805 H       1  ZINC000281092425    0.1500
     28 H28        -1.9507    0.0945   50.2737 H       1  ZINC000281092425    0.4100
     29 H29        -2.6907    1.6900   48.0601 H       1  ZINC000281092425    0.0800
     30 H30        -1.9762    2.7437   49.3042 H       1  ZINC000281092425    0.0800
     31 H31         0.5871    1.3255   46.6962 H       1  ZINC000281092425    0.0500
     32 H32        -1.1354    0.9762   46.4150 H       1  ZINC000281092425    0.0500
     33 H33        -0.1124    3.5589   47.2576 H       1  ZINC000281092425    0.3800
     34 H34        -0.3801    2.4416   51.2901 H       1  ZINC000281092425    0.0800
     35 H35         0.0036    0.7163   50.9662 H       1  ZINC000281092425    0.0800
     36 H36         1.9393    3.0484   51.4426 H       1  ZINC000281092425    0.0600
     37 H37         1.9666    1.4172   52.1781 H       1  ZINC000281092425    0.0900
     38 H38         1.8009    0.5646   48.5208 H       1  ZINC000281092425    0.0800
     39 H39         2.3427    2.2455   48.2642 H       1  ZINC000281092425    0.0700
     40 H40        -3.3315    2.9737   51.2609 H       1  ZINC000281092425    0.1500
     41 H41        -4.2830    2.9894   53.8074 H       1  ZINC000281092425    0.1900
@<TRIPOS>BOND
     1     1     2    2
     2     2     3    2
     3     2     4    1
     4     4    21   ar
     5     4     5   ar
     6     5     6   ar
     7     5    26    1
     8     6     7   ar
     9     6    27    1
    10     7     8    1
    11     7    20   ar
    12     8     9    1
    13     8    28    1
    14     9    10    1
    15     9    29    1
    16     9    30    1
    17    10    11    1
    18    10    12    1
    19    10    14    1
    20    12    13    1
    21    12    31    1
    22    12    32    1
    23    13    33    1
    24    14    15    1
    25    14    19    1
    26    14    16    1
    27    16    17    1
    28    16    34    1
    29    16    35    1
    30    17    18    1
    31    17    36    1
    32    17    37    1
    33    18    19    1
    34    19    38    1
    35    19    39    1
    36    20    21   ar
    37    20    40    1
    38    21    22    1
    39    22    23    1
    40    23    24    1
    41    23    25    1
    42    23    41    1
@<TRIPOS>SUBSTRUCTURE
     1 ZINC000281092425        1 TEMP              0 ****  ****    0 ROOT


##########                                Name:    ZINC000012087388
##########                DOCK_Rotatable_Bonds:                   5
##########                         Heavy_Atoms:                  29
##########                    Molecular_Weight:              418.52
##########                DOCK_Rotatable_Bonds:                   5
##########                       Formal_Charge:          -0.0499999
##########                     HBond_Acceptors:                  10
##########                        HBond_Donors:                   1
##########                         Heavy_Atoms:                  29
##########                          Grid_Score:          -30.369095
##########                     Grid_vdw_energy:          -31.439814
##########                      Grid_es_energy:            1.070719
##########           Internal_energy_repulsive:           31.750538

@<TRIPOS>MOLECULE
ZINC000012087388
 55 58 1 0 0
SMALL
USER_CHARGES


@<TRIPOS>ATOM
      1 C1          2.3587    1.8785   51.5774 C.3     1  <0>        -0.6600
      2 S2          1.5569    3.5045   51.6386 S.o2    1  <0>         2.5100
      3 O3          1.6481    4.0566   52.9447 O.2     1  <0>        -0.9400
      4 O4          1.8991    4.2725   50.4931 O.2     1  <0>        -0.9300
      5 C5         -0.1581    3.1571   51.4323 C.ar    1  <0>        -0.8400
      6 C6         -1.0474    3.3342   52.4803 C.ar    1  <0>         0.3000
      7 N7         -2.3287    3.0645   52.2920 N.ar    1  <0>        -0.5800
      8 C8         -2.7639    2.6300   51.1187 C.ar    1  <0>         0.6000
      9 N9         -4.1112    2.3575   50.9566 N.pl3   1  <0>        -0.5700
     10 C10        -4.5513    1.1033   50.3305 C.3     1  <0>         0.1200
     11 C11        -5.5418    0.4053   51.2677 C.3     1  <0>        -0.1400
     12 C12        -6.6795    1.3695   51.6108 C.3     1  <0>        -0.1200
     13 C13        -6.1125    2.5942   52.3325 C.3     1  <0>        -0.1400
     14 C14        -5.1286    3.3143   51.4127 C.3     1  <0>         0.1200
     15 N15        -1.9402    2.4503   50.0965 N.ar    1  <0>        -0.5700
     16 C16        -0.6480    2.7060   50.2165 C.ar    1  <0>         0.3200
     17 C17         0.2819    2.4991   49.0490 C.3     1  <0>        -0.0700
     18 C18        -0.0291    1.1578   48.3808 C.3     1  <0>        -0.1300
     19 C19         0.9406    0.9351   47.2160 C.3     1  <0>         0.0900
     20 N20         0.8674    2.0909   46.3120 N.am    1  <0>        -0.6100
     21 C21         0.6265    1.9200   44.9970 C.2     1  <0>         0.5900
     22 O22         0.4675    0.8007   44.5482 O.2     1  <0>        -0.5100
     23 C23         0.5560    3.0876   44.1040 C.2     1  <0>        -0.0400
     24 C24         1.5605    4.0076   43.8587 C.2     1  <0>        -0.1500
     25 C25         1.0148    4.9178   42.9506 C.2     1  <0>         0.0000
     26 N26        -0.2131    4.5437   42.6962 N.2     1  <0>        -0.2700
     27 N27        -0.5120    3.4774   43.3467 N.pl3   1  <0>        -0.3900
     28 C28         1.0613    3.4367   46.8688 C.3     1  <0>         0.1100
     29 C29         0.0902    3.6314   48.0374 C.3     1  <0>        -0.1200
     30 H30         1.9710    1.2518   52.3806 H       1  <0>         0.1400
     31 H31         2.1517    1.4072   50.6166 H       1  <0>         0.1300
     32 H32         3.4353    1.9994   51.6983 H       1  <0>         0.1400
     33 H33        -0.6985    3.6880   53.4393 H       1  <0>         0.1900
     34 H34        -5.0387    1.3207   49.3800 H       1  <0>         0.0700
     35 H35        -3.6898    0.4570   50.1622 H       1  <0>         0.1000
     36 H36        -5.9491   -0.4774   50.7747 H       1  <0>         0.0800
     37 H37        -5.0290    0.1075   52.1824 H       1  <0>         0.0700
     38 H38        -7.1761    1.6862   50.6936 H       1  <0>         0.0700
     39 H39        -7.3986    0.8673   52.2580 H       1  <0>         0.0700
     40 H40        -6.9261    3.2695   52.5972 H       1  <0>         0.0800
     41 H41        -5.5944    2.2758   53.2371 H       1  <0>         0.0700
     42 H42        -4.6491    4.1283   51.9564 H       1  <0>         0.1000
     43 H43        -5.6607    3.7127   50.5488 H       1  <0>         0.0700
     44 H44         1.3132    2.4981   49.4018 H       1  <0>         0.1000
     45 H45         0.0851    0.3539   49.1080 H       1  <0>         0.0800
     46 H46        -1.0525    1.1670   48.0055 H       1  <0>         0.0900
     47 H47         1.9559    0.8351   47.5999 H       1  <0>         0.0800
     48 H48         0.6614    0.0304   46.6759 H       1  <0>         0.0900
     49 H49         2.5549    4.0192   44.2799 H       1  <0>         0.1700
     50 H50         1.5170    5.7779   42.5329 H       1  <0>         0.1900
     51 H51        -1.3678    3.0222   43.3112 H       1  <0>         0.4400
     52 H52         2.0865    3.5408   47.2243 H       1  <0>         0.0800
     53 H53         0.8616    4.1827   46.0995 H       1  <0>         0.1000
     54 H54        -0.9342    3.6173   47.6654 H       1  <0>         0.0800
     55 H55         0.2893    4.5881   48.5203 H       1  <0>         0.0900
@<TRIPOS>BOND
     1     1     2    1
     2     1    30    1
     3     1    31    1
     4     1    32    1
     5     2     3    2
     6     2     4    2
     7     2     5    1
     8     5    16   ar
     9     5     6   ar
    10     6     7   ar
    11     6    33    1
    12     7     8   ar
    13     8     9    1
    14     8    15   ar
    15     9    14    1
    16     9    10    1
    17    10    11    1
    18    10    34    1
    19    10    35    1
    20    11    12    1
    21    11    36    1
    22    11    37    1
    23    12    13    1
    24    12    38    1
    25    12    39    1
    26    13    14    1
    27    13    40    1
    28    13    41    1
    29    14    42    1
    30    14    43    1
    31    15    16   ar
    32    16    17    1
    33    17    29    1
    34    17    18    1
    35    17    44    1
    36    18    19    1
    37    18    45    1
    38    18    46    1
    39    19    20    1
    40    19    47    1
    41    19    48    1
    42    20    21   am
    43    20    28    1
    44    21    22    2
    45    21    23    1
    46    23    27    1
    47    23    24    2
    48    24    25    1
    49    24    49    1
    50    25    26    2
    51    25    50    1
    52    26    27    1
    53    27    51    1
    54    28    29    1
    55    28    52    1
    56    28    53    1
    57    29    54    1
    58    29    55    1
@<TRIPOS>SUBSTRUCTURE
     1 <0>         1 TEMP              0 ****  ****    0 ROOT


##########                                Name:    ZINC001300804061
##########                DOCK_Rotatable_Bonds:                   5
##########                         Heavy_Atoms:                  27
##########                    Molecular_Weight:              390.55
##########                DOCK_Rotatable_Bonds:                   5
##########                       Formal_Charge:                0.01
##########                     HBond_Acceptors:                   7
##########                        HBond_Donors:                   0
##########                         Heavy_Atoms:                  27
##########                          Grid_Score:          -30.351362
##########                     Grid_vdw_energy:          -29.238194
##########                      Grid_es_energy:           -1.113169
##########           Internal_energy_repulsive:            8.533914

@<TRIPOS>MOLECULE
ZINC001300804061
 57 60 1 0 0
SMALL
USER_CHARGES


@<TRIPOS>ATOM
      1 C1          2.9345    0.9541   51.7926 C.3     1  ZINC001300804061    0.0300
      2 O2          2.6390    0.9985   50.3952 O.3     1  ZINC001300804061   -0.3800
      3 C3          1.6608    1.9773   50.0388 C.3     1  ZINC001300804061    0.1000
      4 H4          1.7696    2.8513   50.6810 H       1  ZINC001300804061    0.0700
      5 C5          0.2599    1.3866   50.2130 C.3     1  ZINC001300804061    0.0500
      6 N6         -0.7454    2.3849   49.8268 N.3     1  ZINC001300804061   -0.4600
      7 C7         -2.0252    1.9300   50.0952 C.2     1  ZINC001300804061    0.3600
      8 N8         -2.5501    0.7972   49.6879 N.2     1  ZINC001300804061   -0.3000
      9 N9         -3.7567    0.6888   50.1168 N.2     1  ZINC001300804061   -0.2500
     10 C10        -4.0769    1.7487   50.8263 C.2     1  ZINC001300804061    0.2600
     11 C11        -5.3668    2.0026   51.4872 C.2     1  ZINC001300804061    0.0400
     12 C12        -6.5971    1.7127   50.9784 C.2     1  ZINC001300804061   -0.1300
     13 C13        -7.5403    2.1222   51.9408 C.2     1  ZINC001300804061   -0.2100
     14 C14        -6.8496    2.6358   52.9781 C.2     1  ZINC001300804061    0.0100
     15 C15        -7.4506    3.1996   54.2399 C.3     1  ZINC001300804061   -0.0800
     16 O16        -5.5371    2.5569   52.7037 O.3     1  ZINC001300804061   -0.1700
     17 N17        -2.9739    2.5736   50.8379 N.pl3   1  ZINC001300804061   -0.4600
     18 C18        -2.8475    3.8736   51.5012 C.3     1  ZINC001300804061    0.1200
     19 C19        -1.8098    3.7761   52.6212 C.3     1  ZINC001300804061   -0.1000
     20 H20        -1.3339    2.7959   52.5891 H       1  ZINC001300804061    0.0900
     21 C21        -2.5004    3.9600   53.9693 C.3     1  ZINC001300804061   -0.1200
     22 C22        -1.5546    3.6064   55.1132 C.3     1  ZINC001300804061   -0.1200
     23 C23        -0.4601    4.6701   55.2340 C.3     1  ZINC001300804061   -0.0800
     24 S24         0.5268    4.6726   53.7078 S.3     1  ZINC001300804061   -0.2600
     25 C25        -0.7490    4.8628   52.4272 C.3     1  ZINC001300804061   -0.0700
     26 C26        -0.6057    2.7599   48.4139 C.3     1  ZINC001300804061    0.0600
     27 C27         0.7694    3.3917   48.1860 C.3     1  ZINC001300804061   -0.1100
     28 C28         1.8584    2.3891   48.5773 C.3     1  ZINC001300804061   -0.0900
     29 H29         1.7890    1.5083   47.9390 H       1  ZINC001300804061    0.0800
     30 C30         3.2343    3.0364   48.4074 C.3     1  ZINC001300804061   -0.1400
     31 H31         3.3169    1.9229   52.1141 H       1  ZINC001300804061    0.0400
     32 H32         2.0269    0.7190   52.3486 H       1  ZINC001300804061    0.0400
     33 H33         3.6851    0.1866   51.9810 H       1  ZINC001300804061    0.0900
     34 H34         0.1566    0.5042   49.5814 H       1  ZINC001300804061    0.0700
     35 H35         0.1110    1.1060   51.2557 H       1  ZINC001300804061    0.0800
     36 H36        -6.8083    1.2576   50.0220 H       1  ZINC001300804061    0.1600
     37 H37        -8.6142    2.0400   51.8624 H       1  ZINC001300804061    0.1600
     38 H38        -7.5560    2.4050   54.9786 H       1  ZINC001300804061    0.0900
     39 H39        -6.7998    3.9794   54.6355 H       1  ZINC001300804061    0.0800
     40 H40        -8.4307    3.6220   54.0184 H       1  ZINC001300804061    0.0900
     41 H41        -2.5297    4.6224   50.7757 H       1  ZINC001300804061    0.1100
     42 H42        -3.8108    4.1617   51.9225 H       1  ZINC001300804061    0.1000
     43 H43        -2.8159    4.9982   54.0722 H       1  ZINC001300804061    0.0700
     44 H44        -3.3765    3.3131   54.0149 H       1  ZINC001300804061    0.0800
     45 H45        -2.1168    3.5581   56.0458 H       1  ZINC001300804061    0.0800
     46 H46        -1.0969    2.6367   54.9178 H       1  ZINC001300804061    0.0800
     47 H47        -0.9168    5.6497   55.3752 H       1  ZINC001300804061    0.0800
     48 H48         0.1821    4.4385   56.0838 H       1  ZINC001300804061    0.1100
     49 H49        -0.2958    4.7563   51.4416 H       1  ZINC001300804061    0.1000
     50 H50        -1.2105    5.8463   52.5147 H       1  ZINC001300804061    0.0900
     51 H51        -0.7049    1.8712   47.7907 H       1  ZINC001300804061    0.0600
     52 H52        -1.3831    3.4770   48.1500 H       1  ZINC001300804061    0.0800
     53 H53         0.8787    3.6558   47.1341 H       1  ZINC001300804061    0.0800
     54 H54         0.8639    4.2884   48.7985 H       1  ZINC001300804061    0.0800
     55 H55         3.3036    3.9158   49.0477 H       1  ZINC001300804061    0.0500
     56 H56         4.0089    2.3220   48.6862 H       1  ZINC001300804061    0.0600
     57 H57         3.3706    3.3326   47.3674 H       1  ZINC001300804061    0.0600
@<TRIPOS>BOND
     1     1     2    1
     2     1    31    1
     3     1    32    1
     4     1    33    1
     5     2     3    1
     6     3     4    1
     7     3    28    1
     8     3     5    1
     9     5     6    1
    10     5    34    1
    11     5    35    1
    12     6     7    1
    13     6    26    1
    14     7    17    1
    15     7     8    2
    16     8     9    1
    17     9    10    2
    18    10    11    1
    19    10    17    1
    20    11    16    1
    21    11    12    2
    22    12    13    1
    23    12    36    1
    24    13    14    2
    25    13    37    1
    26    14    15    1
    27    14    16    1
    28    15    38    1
    29    15    39    1
    30    15    40    1
    31    17    18    1
    32    18    19    1
    33    18    41    1
    34    18    42    1
    35    19    20    1
    36    19    25    1
    37    19    21    1
    38    21    22    1
    39    21    43    1
    40    21    44    1
    41    22    23    1
    42    22    45    1
    43    22    46    1
    44    23    24    1
    45    23    47    1
    46    23    48    1
    47    24    25    1
    48    25    49    1
    49    25    50    1
    50    26    27    1
    51    26    51    1
    52    26    52    1
    53    27    28    1
    54    27    53    1
    55    27    54    1
    56    28    29    1
    57    28    30    1
    58    30    55    1
    59    30    56    1
    60    30    57    1
@<TRIPOS>SUBSTRUCTURE
     1 ZINC001300804061        1 TEMP              0 ****  ****    0 ROOT


##########                                Name:    ZINC000962730513
##########                DOCK_Rotatable_Bonds:                   6
##########                         Heavy_Atoms:                  24
##########                    Molecular_Weight:             342.465
##########                DOCK_Rotatable_Bonds:                   6
##########                       Formal_Charge:         -0.00999998
##########                     HBond_Acceptors:                   6
##########                        HBond_Donors:                   1
##########                         Heavy_Atoms:                  24
##########                          Grid_Score:          -30.343832
##########                     Grid_vdw_energy:          -29.643869
##########                      Grid_es_energy:           -0.699963
##########           Internal_energy_repulsive:           16.009567

@<TRIPOS>MOLECULE
ZINC000962730513
 46 49 1 0 0
SMALL
USER_CHARGES


@<TRIPOS>ATOM
      1 C1          2.3242    5.4559   42.3534 C.3     1  ZINC000962730513   -0.1400
      2 C2          1.3289    4.4107   41.8455 C.3     1  ZINC000962730513   -0.0800
      3 C3          1.9753    3.0496   41.8666 C.2     1  ZINC000962730513   -0.0100
      4 C4          1.9180    2.2073   42.9412 C.2     1  ZINC000962730513   -0.2800
      5 C5          1.2359    2.4898   44.2076 C.2     1  ZINC000962730513    0.6000
      6 O6          0.6577    3.5492   44.3643 O.2     1  ZINC000962730513   -0.5200
      7 N7          1.2491    1.5763   45.1984 N.am    1  ZINC000962730513   -0.7000
      8 C8          0.5689    1.8593   46.4648 C.3     1  ZINC000962730513    0.1200
      9 H9          0.8351    2.8035   46.9399 H       1  ZINC000962730513    0.1400
     10 C10         0.2590    0.6725   47.3792 C.3     1  ZINC000962730513   -0.1700
     11 H11         0.6053   -0.3234   47.1030 H       1  ZINC000962730513    0.1200
     12 C12         0.0093    0.9532   48.8765 C.3     1  ZINC000962730513    0.0700
     13 N13        -1.4433    1.2519   48.9644 N.3     1  ZINC000962730513   -0.5000
     14 C14        -1.7526    2.0073   50.1858 C.3     1  ZINC000962730513    0.1100
     15 C15        -3.1914    1.7750   50.5693 C.ar    1  ZINC000962730513    0.3200
     16 N16        -3.7856    2.6294   51.3778 N.ar    1  ZINC000962730513   -0.5100
     17 C17        -5.0479    2.4579   51.7364 C.ar    1  ZINC000962730513    0.1500
     18 C18        -5.7441    1.3628   51.2498 C.ar    1  ZINC000962730513   -0.1900
     19 C19        -7.1829    1.1307   51.6329 C.3     1  ZINC000962730513   -0.1100
     20 C20        -5.0852    0.4863   50.4020 C.ar    1  ZINC000962730513    0.1500
     21 N21        -3.8234    0.7256   50.0831 N.ar    1  ZINC000962730513   -0.5000
     22 C22        -1.7231    2.0630   47.7516 C.3     1  ZINC000962730513    0.0700
     23 C23        -0.8760    1.3785   46.6118 C.3     1  ZINC000962730513   -0.1700
     24 H24        -1.4188    0.9197   45.7853 H       1  ZINC000962730513    0.1300
     25 S25         2.7929    0.7303   42.5612 S.3     1  ZINC000962730513    0.1900
     26 C26         3.1854    1.3079   41.0045 C.2     1  ZINC000962730513   -0.2200
     27 C27         2.6763    2.5293   40.8047 C.2     1  ZINC000962730513   -0.1500
     28 H28         2.6203    5.2102   43.3732 H       1  ZINC000962730513    0.0600
     29 H29         3.2045    5.4617   41.7108 H       1  ZINC000962730513    0.0500
     30 H30         1.8567    6.4405   42.3381 H       1  ZINC000962730513    0.0600
     31 H31         0.4485    4.4050   42.4881 H       1  ZINC000962730513    0.1000
     32 H32         1.0327    4.6565   40.8257 H       1  ZINC000962730513    0.0700
     33 H33         1.7090    0.7315   45.0731 H       1  ZINC000962730513    0.4000
     34 H34         0.2535    0.0748   49.4740 H       1  ZINC000962730513    0.0900
     35 H35         0.5945    1.8121   49.2051 H       1  ZINC000962730513    0.0500
     36 H36        -1.1025    1.6728   50.9943 H       1  ZINC000962730513    0.1000
     37 H37        -1.5916    3.0702   50.0061 H       1  ZINC000962730513    0.0700
     38 H38        -5.5288    3.1617   52.3995 H       1  ZINC000962730513    0.1700
     39 H39        -7.8349    1.6286   50.9152 H       1  ZINC000962730513    0.0800
     40 H40        -7.3912    0.0608   51.6317 H       1  ZINC000962730513    0.0700
     41 H41        -7.3634    1.5349   52.6290 H       1  ZINC000962730513    0.0700
     42 H42        -5.5959   -0.3780   50.0039 H       1  ZINC000962730513    0.1700
     43 H43        -2.7832    2.0201   47.5019 H       1  ZINC000962730513    0.0800
     44 H44        -1.4090    3.0955   47.9040 H       1  ZINC000962730513    0.0600
     45 H45         3.7640    0.7594   40.2760 H       1  ZINC000962730513    0.1700
     46 H46         2.8131    3.0699   39.8800 H       1  ZINC000962730513    0.1500
@<TRIPOS>BOND
     1     1     2    1
     2     1    28    1
     3     1    29    1
     4     1    30    1
     5     2     3    1
     6     2    31    1
     7     2    32    1
     8     3    27    1
     9     3     4    2
    10     4     5    1
    11     4    25    1
    12     5     6    2
    13     5     7   am
    14     7     8    1
    15     7    33    1
    16     8     9    1
    17     8    23    1
    18     8    10    1
    19    10    11    1
    20    10    23    1
    21    10    12    1
    22    12    13    1
    23    12    34    1
    24    12    35    1
    25    13    14    1
    26    13    22    1
    27    14    15    1
    28    14    36    1
    29    14    37    1
    30    15    21   ar
    31    15    16   ar
    32    16    17   ar
    33    17    18   ar
    34    17    38    1
    35    18    19    1
    36    18    20   ar
    37    19    39    1
    38    19    40    1
    39    19    41    1
    40    20    21   ar
    41    20    42    1
    42    22    23    1
    43    22    43    1
    44    22    44    1
    45    23    24    1
    46    25    26    1
    47    26    27    2
    48    26    45    1
    49    27    46    1
@<TRIPOS>SUBSTRUCTURE
     1 ZINC000962730513        1 TEMP              0 ****  ****    0 ROOT


##########                                Name:    ZINC001087843226
##########                DOCK_Rotatable_Bonds:                   6
##########                         Heavy_Atoms:                  27
##########                    Molecular_Weight:             368.479
##########                DOCK_Rotatable_Bonds:                   6
##########                       Formal_Charge:        -4.47035e-07
##########                     HBond_Acceptors:                   6
##########                        HBond_Donors:                   1
##########                         Heavy_Atoms:                  27
##########                          Grid_Score:          -30.327187
##########                     Grid_vdw_energy:          -30.897314
##########                      Grid_es_energy:            0.570127
##########           Internal_energy_repulsive:           27.544054

@<TRIPOS>MOLECULE
ZINC001087843226
 55 58 1 0 0
SMALL
USER_CHARGES


@<TRIPOS>ATOM
      1 C1          0.0483    5.2527   48.2970 C.3     1  ZINC001087843226   -0.1500
      2 C2          0.7909    4.2161   47.4515 C.3     1  ZINC001087843226   -0.1500
      3 C3         -0.0061    2.9102   47.4296 C.3     1  ZINC001087843226    0.0700
      4 H4         -1.0010    3.0900   47.0220 H       1  ZINC001087843226    0.1000
      5 C5         -0.1196    2.3404   48.8593 C.3     1  ZINC001087843226    0.1300
      6 H6          0.6873    2.7154   49.4888 H       1  ZINC001087843226    0.1000
      7 N7         -1.4233    2.6641   49.4440 N.am    1  ZINC001087843226   -0.7200
      8 C8         -1.6055    2.5737   50.7763 C.2     1  ZINC001087843226    0.5600
      9 O9         -0.6886    2.2222   51.4926 O.2     1  ZINC001087843226   -0.5300
     10 C10        -2.9207    2.9021   51.3665 C.ar    1  ZINC001087843226   -0.1400
     11 C11        -3.0434    3.9809   52.2415 C.ar    1  ZINC001087843226   -0.0800
     12 C12        -4.2734    4.2824   52.7890 C.ar    1  ZINC001087843226   -0.1300
     13 C13        -5.3799    3.5175   52.4709 C.ar    1  ZINC001087843226   -0.0400
     14 C14        -6.7196    3.8541   53.0734 C.3     1  ZINC001087843226   -0.1200
     15 C15        -5.2671    2.4433   51.6014 C.ar    1  ZINC001087843226   -0.1100
     16 C16        -4.0440    2.1348   51.0436 C.ar    1  ZINC001087843226   -0.0300
     17 C17        -4.1818    0.9298   50.1381 C.3     1  ZINC001087843226   -0.0800
     18 C18        -5.5194    0.2733   50.5409 C.3     1  ZINC001087843226   -0.1200
     19 C19        -6.3160    1.4704   51.1058 C.3     1  ZINC001087843226   -0.0800
     20 C20         0.0224    0.8114   48.6383 C.3     1  ZINC001087843226   -0.1400
     21 C21         1.0465    0.7568   47.4774 C.3     1  ZINC001087843226    0.0400
     22 N22         0.6978    1.9067   46.6103 N.3     1  ZINC001087843226   -0.5100
     23 C23         1.8989    2.4820   45.9903 C.3     1  ZINC001087843226    0.1100
     24 C24         2.5601    1.4453   45.1190 C.2     1  ZINC001087843226    0.0800
     25 N25         3.8211    1.1328   45.1488 N.2     1  ZINC001087843226   -0.2700
     26 O26         4.0307    0.1201   44.1775 O.3     1  ZINC001087843226    0.0300
     27 N27         2.7685   -0.1272   43.5784 N.2     1  ZINC001087843226   -0.2800
     28 C28         1.9062    0.6596   44.1493 C.2     1  ZINC001087843226    0.0900
     29 C29         0.4376    0.7287   43.8182 C.3     1  ZINC001087843226   -0.0900
     30 H30         0.6484    6.1597   48.3695 H       1  ZINC001087843226    0.0600
     31 H31        -0.9078    5.4861   47.8286 H       1  ZINC001087843226    0.0600
     32 H32        -0.1248    4.8508   49.2954 H       1  ZINC001087843226    0.0600
     33 H33         0.9033    4.5903   46.4339 H       1  ZINC001087843226    0.0800
     34 H34         1.7753    4.0337   47.8824 H       1  ZINC001087843226    0.0700
     35 H35        -2.1554    2.9434   48.8721 H       1  ZINC001087843226    0.4000
     36 H36        -2.1786    4.5782   52.4901 H       1  ZINC001087843226    0.1300
     37 H37        -4.3718    5.1169   53.4674 H       1  ZINC001087843226    0.1300
     38 H38        -7.2435    4.5562   52.4249 H       1  ZINC001087843226    0.0800
     39 H39        -7.3105    2.9441   53.1764 H       1  ZINC001087843226    0.0700
     40 H40        -6.5735    4.3055   54.0547 H       1  ZINC001087843226    0.0700
     41 H41        -4.2131    1.2426   49.0944 H       1  ZINC001087843226    0.0800
     42 H42        -3.3560    0.2374   50.3017 H       1  ZINC001087843226    0.0900
     43 H43        -6.0220   -0.1480   49.6703 H       1  ZINC001087843226    0.0800
     44 H44        -5.3628   -0.4877   51.3054 H       1  ZINC001087843226    0.0700
     45 H45        -6.9482    1.1475   51.9329 H       1  ZINC001087843226    0.0800
     46 H46        -6.9210    1.9259   50.3218 H       1  ZINC001087843226    0.0800
     47 H47         0.4161    0.3230   49.5297 H       1  ZINC001087843226    0.0800
     48 H48        -0.9288    0.3699   48.3410 H       1  ZINC001087843226    0.0800
     49 H49         2.0612    0.8633   47.8612 H       1  ZINC001087843226    0.0600
     50 H50         0.9449   -0.1775   46.9254 H       1  ZINC001087843226    0.0800
     51 H51         1.6177    3.3418   45.3824 H       1  ZINC001087843226    0.1200
     52 H52         2.5932    2.7987   46.7687 H       1  ZINC001087843226    0.0700
     53 H53        -0.1201    0.0931   44.5060 H       1  ZINC001087843226    0.1000
     54 H54         0.0918    1.7580   43.9132 H       1  ZINC001087843226    0.0900
     55 H55         0.2791    0.3849   42.7962 H       1  ZINC001087843226    0.0900
@<TRIPOS>BOND
     1     1     2    1
     2     1    30    1
     3     1    31    1
     4     1    32    1
     5     2     3    1
     6     2    33    1
     7     2    34    1
     8     3     4    1
     9     3    22    1
    10     3     5    1
    11     5     6    1
    12     5     7    1
    13     5    20    1
    14     7     8   am
    15     7    35    1
    16     8     9    2
    17     8    10    1
    18    10    16   ar
    19    10    11   ar
    20    11    12   ar
    21    11    36    1
    22    12    13   ar
    23    12    37    1
    24    13    14    1
    25    13    15   ar
    26    14    38    1
    27    14    39    1
    28    14    40    1
    29    15    19    1
    30    15    16   ar
    31    16    17    1
    32    17    18    1
    33    17    41    1
    34    17    42    1
    35    18    19    1
    36    18    43    1
    37    18    44    1
    38    19    45    1
    39    19    46    1
    40    20    21    1
    41    20    47    1
    42    20    48    1
    43    21    22    1
    44    21    49    1
    45    21    50    1
    46    22    23    1
    47    23    24    1
    48    23    51    1
    49    23    52    1
    50    24    28    1
    51    24    25    2
    52    25    26    1
    53    26    27    1
    54    27    28    2
    55    28    29    1
    56    29    53    1
    57    29    54    1
    58    29    55    1
@<TRIPOS>SUBSTRUCTURE
     1 ZINC001087843226        1 TEMP              0 ****  ****    0 ROOT


##########                                Name:    ZINC000655235556
##########                DOCK_Rotatable_Bonds:                   6
##########                         Heavy_Atoms:                  23
##########                    Molecular_Weight:             336.778
##########                DOCK_Rotatable_Bonds:                   6
##########                       Formal_Charge:         -0.00999996
##########                     HBond_Acceptors:                   8
##########                        HBond_Donors:                   2
##########                         Heavy_Atoms:                  23
##########                          Grid_Score:          -30.323929
##########                     Grid_vdw_energy:          -29.438524
##########                      Grid_es_energy:           -0.885405
##########           Internal_energy_repulsive:            8.072140

@<TRIPOS>MOLECULE
ZINC000655235556
 40 42 1 0 0
SMALL
USER_CHARGES


@<TRIPOS>ATOM
      1 C1         -5.2509   -0.3860   50.5711 C.3     1  ZINC000655235556    0.0200
      2 O2         -4.0066    0.2606   50.2962 O.3     1  ZINC000655235556   -0.2700
      3 C3         -3.8231    1.4949   50.8283 C.ar    1  ZINC000655235556    0.2000
      4 C4         -4.8425    2.1028   51.5441 C.ar    1  ZINC000655235556   -0.2100
      5 C5         -4.6538    3.3605   52.0861 C.ar    1  ZINC000655235556    0.0300
      6 Cl6        -5.9350    4.1158   52.9815 Cl      1  ZINC000655235556   -0.0500
      7 C7         -3.4466    4.0219   51.9188 C.ar    1  ZINC000655235556   -0.1600
      8 C8         -2.4233    3.4314   51.2100 C.ar    1  ZINC000655235556   -0.0300
      9 C9         -2.5994    2.1587   50.6614 C.ar    1  ZINC000655235556   -0.1700
     10 C10        -1.5077    1.5213   49.9020 C.2     1  ZINC000655235556    0.5700
     11 O11        -0.5461    1.0628   50.4884 O.2     1  ZINC000655235556   -0.5100
     12 N12        -1.5757    1.4469   48.5580 N.am    1  ZINC000655235556   -0.7300
     13 C13        -0.4920    0.8121   47.8037 C.3     1  ZINC000655235556    0.2100
     14 C14        -0.3352    1.5017   46.4730 C.2     1  ZINC000655235556    0.2600
     15 N15         0.5165    2.4561   46.1979 N.2     1  ZINC000655235556   -0.5100
     16 C16         0.3799    2.8311   44.9267 C.2     1  ZINC000655235556    0.2200
     17 C17         1.1847    3.9036   44.2388 C.3     1  ZINC000655235556    0.1700
     18 H18         2.2132    3.8822   44.5989 H       1  ZINC000655235556    0.1100
     19 C19         0.5604    5.2875   44.5187 C.3     1  ZINC000655235556   -0.1400
     20 C20         0.7191    6.0037   43.1498 C.3     1  ZINC000655235556   -0.1500
     21 C21         0.5349    4.8151   42.1729 C.3     1  ZINC000655235556    0.0500
     22 O22         1.1615    3.6949   42.8219 O.3     1  ZINC000655235556   -0.3700
     23 N23        -0.5649    2.1175   44.3728 N.2     1  ZINC000655235556   -0.2800
     24 N24        -1.0420    1.2398   45.3600 N.pl3   1  ZINC000655235556   -0.4700
     25 H25        -5.3653   -0.5112   51.6479 H       1  ZINC000655235556    0.0600
     26 H26        -6.0695    0.2230   50.1873 H       1  ZINC000655235556    0.0600
     27 H27        -5.2673   -1.3629   50.0879 H       1  ZINC000655235556    0.1100
     28 H28        -5.7854    1.5935   51.6784 H       1  ZINC000655235556    0.1500
     29 H29        -3.3080    5.0041   52.3457 H       1  ZINC000655235556    0.1400
     30 H30        -1.4848    3.9503   51.0820 H       1  ZINC000655235556    0.1400
     31 H31        -2.3422    1.8137   48.0901 H       1  ZINC000655235556    0.4000
     32 H32         0.4380    0.8926   48.3664 H       1  ZINC000655235556    0.1000
     33 H33        -0.7291   -0.2395   47.6423 H       1  ZINC000655235556    0.1100
     34 H34        -0.4918    5.1914   44.7866 H       1  ZINC000655235556    0.0800
     35 H35         1.1137    5.8123   45.2975 H       1  ZINC000655235556    0.0900
     36 H36        -0.0585    6.7541   43.0066 H       1  ZINC000655235556    0.0900
     37 H37         1.7109    6.4445   43.0497 H       1  ZINC000655235556    0.0800
     38 H38        -0.5251    4.6168   42.0140 H       1  ZINC000655235556    0.0600
     39 H39         1.0277    5.0257   41.2238 H       1  ZINC000655235556    0.0900
     40 H40        -1.7461    0.5801   45.2602 H       1  ZINC000655235556    0.4400
@<TRIPOS>BOND
     1     1     2    1
     2     1    25    1
     3     1    26    1
     4     1    27    1
     5     2     3    1
     6     3     9   ar
     7     3     4   ar
     8     4     5   ar
     9     4    28    1
    10     5     6    1
    11     5     7   ar
    12     7     8   ar
    13     7    29    1
    14     8     9   ar
    15     8    30    1
    16     9    10    1
    17    10    11    2
    18    10    12   am
    19    12    13    1
    20    12    31    1
    21    13    14    1
    22    13    32    1
    23    13    33    1
    24    14    24    1
    25    14    15    2
    26    15    16    1
    27    16    17    1
    28    16    23    2
    29    17    18    1
    30    17    22    1
    31    17    19    1
    32    19    20    1
    33    19    34    1
    34    19    35    1
    35    20    21    1
    36    20    36    1
    37    20    37    1
    38    21    22    1
    39    21    38    1
    40    21    39    1
    41    23    24    1
    42    24    40    1
@<TRIPOS>SUBSTRUCTURE
     1 ZINC000655235556        1 TEMP              0 ****  ****    0 ROOT


##########                                Name:    ZINC000530457945
##########                DOCK_Rotatable_Bonds:                   4
##########                         Heavy_Atoms:                  25
##########                    Molecular_Weight:             355.827
##########                DOCK_Rotatable_Bonds:                   4
##########                       Formal_Charge:           0.0199997
##########                     HBond_Acceptors:                   7
##########                        HBond_Donors:                   1
##########                         Heavy_Atoms:                  25
##########                          Grid_Score:          -30.287703
##########                     Grid_vdw_energy:          -29.349546
##########                      Grid_es_energy:           -0.938157
##########           Internal_energy_repulsive:           30.292135

@<TRIPOS>MOLECULE
ZINC000530457945
 43 46 1 0 0
SMALL
USER_CHARGES


@<TRIPOS>ATOM
      1 C1          0.1631    2.6374   45.5686 C.3     1  ZINC000530457945   -0.1700
      2 C2          0.2656    1.5544   46.6445 C.3     1  ZINC000530457945    0.0900
      3 H3         -0.5159    0.8092   46.4960 H       1  ZINC000530457945    0.1100
      4 C4          0.1260    2.1899   48.0439 C.3     1  ZINC000530457945   -0.1200
      5 H5          0.3932    3.2462   48.0160 H       1  ZINC000530457945    0.1100
      6 C6         -1.2735    2.0102   48.5734 C.2     1  ZINC000530457945    0.5300
      7 O7         -2.2204    2.0741   47.8183 O.2     1  ZINC000530457945   -0.4700
      8 N8         -1.4727    1.7784   49.8861 N.am    1  ZINC000530457945   -0.6200
      9 C9         -2.7697    1.6134   50.3771 C.2     1  ZINC000530457945    0.4800
     10 N10        -3.3400    2.3735   51.2899 N.2     1  ZINC000530457945   -0.3000
     11 N11        -4.6325    1.8702   51.4957 N.pl3   1  ZINC000530457945   -0.2800
     12 C12        -5.6565    2.2460   52.3064 C.2     1  ZINC000530457945    0.1400
     13 C13        -6.8246    1.5628   52.3013 C.2     1  ZINC000530457945   -0.0800
     14 Cl14       -8.1215    2.0576   53.3438 Cl      1  ZINC000530457945   -0.0200
     15 C15        -6.9905    0.4558   51.4552 C.2     1  ZINC000530457945   -0.0500
     16 C16        -5.9688    0.0733   50.6395 C.2     1  ZINC000530457945   -0.0900
     17 C17        -4.7634    0.7971   50.6610 C.2     1  ZINC000530457945    0.3000
     18 N18        -3.6218    0.6688   49.9918 N.2     1  ZINC000530457945   -0.5500
     19 C19         1.1457    1.3884   48.8951 C.3     1  ZINC000530457945   -0.1200
     20 C20         2.2836    1.1446   47.8726 C.3     1  ZINC000530457945    0.0400
     21 N21         1.5906    0.9107   46.5837 N.3     1  ZINC000530457945   -0.4900
     22 C22         2.3401    1.4082   45.5151 C.ar    1  ZINC000530457945    0.1000
     23 C23         2.9683    2.6426   45.6205 C.ar    1  ZINC000530457945   -0.1600
     24 C24         3.7090    3.1312   44.5622 C.ar    1  ZINC000530457945   -0.1100
     25 C25         3.8251    2.3933   43.3985 C.ar    1  ZINC000530457945   -0.1300
     26 C26         3.2010    1.1642   43.2902 C.ar    1  ZINC000530457945   -0.1100
     27 C27         2.4636    0.6670   44.3468 C.ar    1  ZINC000530457945   -0.1000
     28 H28         0.3858    2.2033   44.5939 H       1  ZINC000530457945    0.0700
     29 H29        -0.8466    3.0480   45.5613 H       1  ZINC000530457945    0.0600
     30 H30         0.8770    3.4323   45.7841 H       1  ZINC000530457945    0.0600
     31 H31        -0.7152    1.7261   50.4898 H       1  ZINC000530457945    0.4300
     32 H32        -5.5369    3.0970   52.9605 H       1  ZINC000530457945    0.1800
     33 H33        -7.9224   -0.0900   51.4511 H       1  ZINC000530457945    0.1600
     34 H34        -6.0831   -0.7771   49.9837 H       1  ZINC000530457945    0.1700
     35 H35         1.4997    1.9797   49.7395 H       1  ZINC000530457945    0.0900
     36 H36         0.7161    0.4455   49.2335 H       1  ZINC000530457945    0.0900
     37 H37         2.9274    2.0215   47.8051 H       1  ZINC000530457945    0.0700
     38 H38         2.8648    0.2666   48.1540 H       1  ZINC000530457945    0.0900
     39 H39         2.8775    3.2197   46.5288 H       1  ZINC000530457945    0.1200
     40 H40         4.1978    4.0909   44.6434 H       1  ZINC000530457945    0.1200
     41 H41         4.4043    2.7781   42.5720 H       1  ZINC000530457945    0.1200
     42 H42         3.2936    0.5904   42.3799 H       1  ZINC000530457945    0.1300
     43 H43         1.9765   -0.2932   44.2617 H       1  ZINC000530457945    0.1300
@<TRIPOS>BOND
     1     1     2    1
     2     1    28    1
     3     1    29    1
     4     1    30    1
     5     2     3    1
     6     2    21    1
     7     2     4    1
     8     4     5    1
     9     4     6    1
    10     4    19    1
    11     6     7    2
    12     6     8   am
    13     8     9    1
    14     8    31    1
    15     9    18    1
    16     9    10    2
    17    10    11    1
    18    11    17    1
    19    11    12    1
    20    12    13    2
    21    12    32    1
    22    13    14    1
    23    13    15    1
    24    15    16    2
    25    15    33    1
    26    16    17    1
    27    16    34    1
    28    17    18    2
    29    19    20    1
    30    19    35    1
    31    19    36    1
    32    20    21    1
    33    20    37    1
    34    20    38    1
    35    21    22    1
    36    22    27   ar
    37    22    23   ar
    38    23    24   ar
    39    23    39    1
    40    24    25   ar
    41    24    40    1
    42    25    26   ar
    43    25    41    1
    44    26    27   ar
    45    26    42    1
    46    27    43    1
@<TRIPOS>SUBSTRUCTURE
     1 ZINC000530457945        1 TEMP              0 ****  ****    0 ROOT


##########                                Name:    ZINC000995593866
##########                DOCK_Rotatable_Bonds:                   7
##########                         Heavy_Atoms:                  24
##########                    Molecular_Weight:             342.389
##########                DOCK_Rotatable_Bonds:                   7
##########                       Formal_Charge:                0.03
##########                     HBond_Acceptors:                   8
##########                        HBond_Donors:                   1
##########                         Heavy_Atoms:                  24
##########                          Grid_Score:          -30.260454
##########                     Grid_vdw_energy:          -30.084658
##########                      Grid_es_energy:           -0.175796
##########           Internal_energy_repulsive:            9.345141

@<TRIPOS>MOLECULE
ZINC000995593866
 48 50 1 0 0
SMALL
USER_CHARGES


@<TRIPOS>ATOM
      1 C1         -6.9663    4.4604   50.4614 C.3     1  ZINC000995593866   -0.1400
      2 C2         -6.1508    3.5928   51.4224 C.3     1  ZINC000995593866   -0.0800
      3 C3         -4.9941    4.4001   52.0151 C.3     1  ZINC000995593866   -0.1400
      4 C4         -7.0547    3.0415   52.5462 C.3     1  ZINC000995593866    0.1200
      5 N5         -7.4622    1.6982   52.0728 N.am    1  ZINC000995593866   -0.6300
      6 C6         -8.6697    1.1112   52.1908 C.2     1  ZINC000995593866    0.5400
      7 O7         -8.8484   -0.0030   51.7463 O.2     1  ZINC000995593866   -0.5300
      8 C8         -9.7978    1.8394   52.8751 C.3     1  ZINC000995593866   -0.1300
      9 C9        -10.9370    0.8594   53.1630 C.3     1  ZINC000995593866   -0.1000
     10 C10       -12.2269    1.5404   53.6504 C.3     1  ZINC000995593866   -0.1300
     11 C11       -12.9943    0.5401   52.7699 C.3     1  ZINC000995593866   -0.1400
     12 C12       -11.7238    0.4438   51.9088 C.3     1  ZINC000995593866   -0.1400
     13 C13        -6.2415    1.1464   51.4404 C.3     1  ZINC000995593866    0.1100
     14 C14        -5.6147    2.3433   50.6933 C.3     1  ZINC000995593866    0.0800
     15 H15        -5.9322    2.3476   49.6506 H       1  ZINC000995593866    0.0700
     16 N16        -4.1492    2.2886   50.7797 N.3     1  ZINC000995593866   -0.6800
     17 C17        -3.6024    1.3066   49.8338 C.3     1  ZINC000995593866    0.1500
     18 C18        -2.0968    1.3579   49.8706 C.2     1  ZINC000995593866    0.1900
     19 N19        -1.3553    1.8367   50.8404 N.2     1  ZINC000995593866   -0.4300
     20 C20        -0.0825    1.6733   50.4374 C.2     1  ZINC000995593866    0.0900
     21 C21         1.1534    2.0663   51.2049 C.3     1  ZINC000995593866    0.3800
     22 F22         2.2075    1.2139   50.8593 F       1  ZINC000995593866   -0.1800
     23 F23         1.4980    3.3852   50.8904 F       1  ZINC000995593866   -0.1700
     24 N24        -0.1144    1.1140   49.2649 N.2     1  ZINC000995593866   -0.3400
     25 O25        -1.2620    0.9191   48.9238 O.3     1  ZINC000995593866    0.1000
     26 H26        -7.8081    3.8844   50.0773 H       1  ZINC000995593866    0.0600
     27 H27        -7.3376    5.3380   50.9905 H       1  ZINC000995593866    0.0600
     28 H28        -6.3338    4.7769   49.6320 H       1  ZINC000995593866    0.0600
     29 H29        -5.3900    5.2644   52.5484 H       1  ZINC000995593866    0.0700
     30 H30        -4.4303    3.7736   52.7062 H       1  ZINC000995593866    0.0700
     31 H31        -4.3380    4.7376   51.2127 H       1  ZINC000995593866    0.0600
     32 H32        -6.4961    2.9626   53.4788 H       1  ZINC000995593866    0.0800
     33 H33        -7.9286    3.6793   52.6782 H       1  ZINC000995593866    0.0900
     34 H34        -9.4396    2.2655   53.8122 H       1  ZINC000995593866    0.0900
     35 H35       -10.1604    2.6380   52.2279 H       1  ZINC000995593866    0.0900
     36 H36       -10.6253    0.0180   53.7817 H       1  ZINC000995593866    0.1000
     37 H37       -12.4110    1.4138   54.7173 H       1  ZINC000995593866    0.0700
     38 H38       -12.3249    2.5753   53.3228 H       1  ZINC000995593866    0.0800
     39 H39       -13.2462   -0.3886   53.2818 H       1  ZINC000995593866    0.0800
     40 H40       -13.8435    0.9804   52.2474 H       1  ZINC000995593866    0.0700
     41 H41       -11.6844    1.1790   51.1050 H       1  ZINC000995593866    0.0800
     42 H42       -11.5019   -0.5680   51.5696 H       1  ZINC000995593866    0.0700
     43 H43        -5.5560    0.7715   52.2004 H       1  ZINC000995593866    0.0900
     44 H44        -6.5020    0.3544   50.7382 H       1  ZINC000995593866    0.0800
     45 H45        -3.7438    3.2001   50.6293 H       1  ZINC000995593866    0.3600
     46 H46        -3.9388    0.3078   50.1119 H       1  ZINC000995593866    0.1200
     47 H47        -3.9494    1.5397   48.8271 H       1  ZINC000995593866    0.0800
     48 H48         0.9577    1.9870   52.2742 H       1  ZINC000995593866    0.1500
@<TRIPOS>BOND
     1     1     2    1
     2     1    26    1
     3     1    27    1
     4     1    28    1
     5     2    14    1
     6     2     3    1
     7     2     4    1
     8     3    29    1
     9     3    30    1
    10     3    31    1
    11     4     5    1
    12     4    32    1
    13     4    33    1
    14     5     6   am
    15     5    13    1
    16     6     7    2
    17     6     8    1
    18     8     9    1
    19     8    34    1
    20     8    35    1
    21     9    12    1
    22     9    10    1
    23     9    36    1
    24    10    11    1
    25    10    37    1
    26    10    38    1
    27    11    12    1
    28    11    39    1
    29    11    40    1
    30    12    41    1
    31    12    42    1
    32    13    14    1
    33    13    43    1
    34    13    44    1
    35    14    15    1
    36    14    16    1
    37    16    17    1
    38    16    45    1
    39    17    18    1
    40    17    46    1
    41    17    47    1
    42    18    25    1
    43    18    19    2
    44    19    20    1
    45    20    21    1
    46    20    24    2
    47    21    22    1
    48    21    23    1
    49    21    48    1
    50    24    25    1
@<TRIPOS>SUBSTRUCTURE
     1 ZINC000995593866        1 TEMP              0 ****  ****    0 ROOT


##########                                Name:    ZINC001369071670
##########                DOCK_Rotatable_Bonds:                   8
##########                         Heavy_Atoms:                  24
##########                    Molecular_Weight:             335.366
##########                DOCK_Rotatable_Bonds:                   8
##########                       Formal_Charge:        -2.90573e-07
##########                     HBond_Acceptors:                  10
##########                        HBond_Donors:                   1
##########                         Heavy_Atoms:                  24
##########                          Grid_Score:          -30.251892
##########                     Grid_vdw_energy:          -28.586918
##########                      Grid_es_energy:           -1.664974
##########           Internal_energy_repulsive:            8.544444

@<TRIPOS>MOLECULE
ZINC001369071670
 45 47 1 0 0
SMALL
USER_CHARGES


@<TRIPOS>ATOM
      1 C1          0.7975    6.8215   42.3141 C.3     1  ZINC001369071670   -0.0800
      2 C2          1.0300    5.4235   42.8267 C.2     1  ZINC001369071670    0.0000
      3 C3          0.1166    4.4289   42.9057 C.2     1  ZINC001369071670   -0.2300
      4 C4          0.8439    3.3385   43.4501 C.2     1  ZINC001369071670    0.2100
      5 O5          0.3677    2.0976   43.7239 O.3     1  ZINC001369071670   -0.2600
      6 C6          1.3067    1.1341   44.2058 C.3     1  ZINC001369071670    0.0400
      7 C7          1.3720    1.2048   45.7097 C.2     1  ZINC001369071670    0.5200
      8 O8          2.0505    0.4100   46.3252 O.2     1  ZINC001369071670   -0.5100
      9 N9          0.6766    2.1514   46.3707 N.am    1  ZINC001369071670   -0.7200
     10 C10         0.7416    2.2212   47.8326 C.3     1  ZINC001369071670    0.1500
     11 H11         0.9051    1.2224   48.2372 H       1  ZINC001369071670    0.0900
     12 C12         1.8957    3.1353   48.2488 C.3     1  ZINC001369071670   -0.1700
     13 C13        -0.5744    2.7820   48.3754 C.3     1  ZINC001369071670   -0.1200
     14 C14        -1.7252    1.7596   48.3884 C.3     1  ZINC001369071670    0.0100
     15 N15        -2.0654    2.3078   49.7199 N.3     1  ZINC001369071670   -0.4800
     16 C16        -2.4034    1.2320   50.6614 C.3     1  ZINC001369071670    0.1000
     17 C17        -3.8984    1.0455   50.6953 C.2     1  ZINC001369071670    0.1900
     18 N18        -4.5799    0.0824   50.1245 N.2     1  ZINC001369071670   -0.3000
     19 N19        -5.8280    0.2708   50.3829 N.2     1  ZINC001369071670   -0.0700
     20 N20        -5.9603    1.3291   51.1038 N.2     1  ZINC001369071670   -0.0900
     21 N21        -4.7925    1.8323   51.3222 N.pl3   1  ZINC001369071670   -0.3000
     22 C22        -4.4961    3.0387   52.0988 C.3     1  ZINC001369071670    0.0800
     23 C23        -0.6700    2.7612   49.9116 C.3     1  ZINC001369071670    0.0200
     24 N24         2.0634    3.7683   43.6343 N.2     1  ZINC001369071670   -0.4100
     25 O25         2.1841    4.9207   43.2881 O.3     1  ZINC001369071670    0.1000
     26 H26         1.7265    7.3887   42.3715 H       1  ZINC001369071670    0.0900
     27 H27         0.4622    6.7775   41.2779 H       1  ZINC001369071670    0.1000
     28 H28         0.0357    7.3094   42.9222 H       1  ZINC001369071670    0.1000
     29 H29        -0.9247    4.4579   42.6206 H       1  ZINC001369071670    0.1800
     30 H30         0.9910    0.1358   43.9024 H       1  ZINC001369071670    0.1000
     31 H31         2.2912    1.3462   43.7890 H       1  ZINC001369071670    0.1000
     32 H32         0.1331    2.7864   45.8785 H       1  ZINC001369071670    0.4000
     33 H33         2.8332    2.7357   47.8621 H       1  ZINC001369071670    0.0600
     34 H34         1.7322    4.1341   47.8442 H       1  ZINC001369071670    0.0600
     35 H35         1.9440    3.1873   49.3365 H       1  ZINC001369071670    0.0700
     36 H36        -0.8425    3.7410   47.9321 H       1  ZINC001369071670    0.1100
     37 H37        -2.4857    1.9448   47.6299 H       1  ZINC001369071670    0.1000
     38 H38        -1.3908    0.7224   48.4129 H       1  ZINC001369071670    0.0800
     39 H39        -1.9288    0.3051   50.3395 H       1  ZINC001369071670    0.1000
     40 H40        -2.0475    1.4957   51.6574 H       1  ZINC001369071670    0.0900
     41 H41        -4.3371    2.7689   53.1429 H       1  ZINC001369071670    0.1000
     42 H42        -3.5970    3.5126   51.7050 H       1  ZINC001369071670    0.1000
     43 H43        -5.3339    3.7323   52.0264 H       1  ZINC001369071670    0.1100
     44 H44        -0.0271    2.0170   50.3815 H       1  ZINC001369071670    0.0800
     45 H45        -0.5875    3.7466   50.3701 H       1  ZINC001369071670    0.1000
@<TRIPOS>BOND
     1     1     2    1
     2     1    26    1
     3     1    27    1
     4     1    28    1
     5     2    25    1
     6     2     3    2
     7     3     4    1
     8     3    29    1
     9     4     5    1
    10     4    24    2
    11     5     6    1
    12     6     7    1
    13     6    30    1
    14     6    31    1
    15     7     8    2
    16     7     9   am
    17     9    10    1
    18     9    32    1
    19    10    11    1
    20    10    12    1
    21    10    13    1
    22    12    33    1
    23    12    34    1
    24    12    35    1
    25    13    23    1
    26    13    14    1
    27    13    36    1
    28    14    15    1
    29    14    37    1
    30    14    38    1
    31    15    16    1
    32    15    23    1
    33    16    17    1
    34    16    39    1
    35    16    40    1
    36    17    21    1
    37    17    18    2
    38    18    19    1
    39    19    20    2
    40    20    21    1
    41    21    22    1
    42    22    41    1
    43    22    42    1
    44    22    43    1
    45    23    44    1
    46    23    45    1
    47    24    25    1
@<TRIPOS>SUBSTRUCTURE
     1 ZINC001369071670        1 TEMP              0 ****  ****    0 ROOT


##########                                Name:    ZINC000800038938
##########                DOCK_Rotatable_Bonds:                   6
##########                         Heavy_Atoms:                  25
##########                    Molecular_Weight:             386.274
##########                DOCK_Rotatable_Bonds:                   6
##########                       Formal_Charge:           0.0200003
##########                     HBond_Acceptors:                   7
##########                        HBond_Donors:                   0
##########                         Heavy_Atoms:                  25
##########                          Grid_Score:          -30.244535
##########                     Grid_vdw_energy:          -30.778723
##########                      Grid_es_energy:            0.534188
##########           Internal_energy_repulsive:           12.350764

@<TRIPOS>MOLECULE
ZINC000800038938
 46 48 1 0 0
SMALL
USER_CHARGES


@<TRIPOS>ATOM
      1 C1        -10.0159    8.1092   47.4630 C.3     1  ZINC000800038938    0.0300
      2 O2         -9.4528    6.8182   47.7047 O.3     1  ZINC000800038938   -0.3800
      3 C3         -9.2682    6.5143   49.0888 C.3     1  ZINC000800038938    0.0900
      4 H4        -10.2292    6.5195   49.6032 H       1  ZINC000800038938    0.0700
      5 C5         -8.3181    7.5443   49.7337 C.3     1  ZINC000800038938   -0.1400
      6 C6         -7.4792    6.7123   50.7352 C.3     1  ZINC000800038938   -0.1400
      7 C7         -7.2589    5.3816   49.9737 C.3     1  ZINC000800038938    0.0900
      8 H8         -6.4438    5.4826   49.2570 H       1  ZINC000800038938    0.0900
      9 O9         -6.9840    4.3024   50.9053 O.3     1  ZINC000800038938   -0.3500
     10 C10        -6.5191    3.1543   50.3880 C.2     1  ZINC000800038938    0.4500
     11 O11        -6.5933    2.9539   49.1988 O.2     1  ZINC000800038938   -0.4800
     12 C12        -5.9049    2.1154   51.2903 C.3     1  ZINC000800038938    0.1500
     13 H13        -6.0140    2.4180   52.3318 H       1  ZINC000800038938    0.1200
     14 C14        -6.5924    0.7521   51.0652 C.3     1  ZINC000800038938   -0.1200
     15 C15        -5.4139   -0.2521   51.1656 C.3     1  ZINC000800038938   -0.1300
     16 C16        -4.2603    0.5567   50.5216 C.3     1  ZINC000800038938    0.0900
     17 N17        -4.4810    1.9489   50.9644 N.am    1  ZINC000800038938   -0.6000
     18 C18        -3.5349    2.9049   51.0511 C.2     1  ZINC000800038938    0.5800
     19 O19        -3.8319    4.0212   51.4298 O.2     1  ZINC000800038938   -0.4900
     20 C20        -2.1368    2.5960   50.6857 C.ar    1  ZINC000800038938   -0.1100
     21 C21        -1.8287    2.1635   49.3950 C.ar    1  ZINC000800038938   -0.0700
     22 C22        -0.5204    1.8767   49.0603 C.ar    1  ZINC000800038938   -0.0400
     23 Cl23       -0.1351    1.3390   47.4552 Cl      1  ZINC000800038938   -0.0500
     24 C24         0.4854    2.0171   50.0019 C.ar    1  ZINC000800038938   -0.0700
     25 C25         0.1872    2.4449   51.2828 C.ar    1  ZINC000800038938   -0.1000
     26 C26        -1.1164    2.7412   51.6293 C.ar    1  ZINC000800038938    0.0100
     27 Cl27       -1.4887    3.2780   53.2377 Cl      1  ZINC000800038938   -0.0300
     28 C28        -8.5959    5.1387   49.2414 C.3     1  ZINC000800038938   -0.1200
     29 H29       -10.1240    8.2632   46.3894 H       1  ZINC000800038938    0.0900
     30 H30       -10.9939    8.1741   47.9398 H       1  ZINC000800038938    0.0400
     31 H31        -9.3590    8.8750   47.8757 H       1  ZINC000800038938    0.0400
     32 H32        -7.6741    7.9947   48.9783 H       1  ZINC000800038938    0.0800
     33 H33        -8.8870    8.3121   50.2582 H       1  ZINC000800038938    0.0800
     34 H34        -6.5271    7.2014   50.9415 H       1  ZINC000800038938    0.0800
     35 H35        -8.0351    6.5423   51.6571 H       1  ZINC000800038938    0.0800
     36 H36        -7.3307    0.5593   51.8436 H       1  ZINC000800038938    0.1000
     37 H37        -7.0517    0.7103   50.0776 H       1  ZINC000800038938    0.0900
     38 H38        -5.1910   -0.4903   52.2057 H       1  ZINC000800038938    0.0900
     39 H39        -5.6222   -1.1573   50.5952 H       1  ZINC000800038938    0.1000
     40 H40        -3.2968    0.1943   50.8798 H       1  ZINC000800038938    0.0900
     41 H41        -4.3112    0.4906   49.4347 H       1  ZINC000800038938    0.0800
     42 H42        -2.6120    2.0531   48.6597 H       1  ZINC000800038938    0.1500
     43 H43         1.5072    1.7914   49.7347 H       1  ZINC000800038938    0.1500
     44 H44         0.9764    2.5520   52.0124 H       1  ZINC000800038938    0.1500
     45 H45        -9.2294    4.4757   49.8308 H       1  ZINC000800038938    0.0900
     46 H46        -8.4102    4.7030   48.2597 H       1  ZINC000800038938    0.0900
@<TRIPOS>BOND
     1     1     2    1
     2     1    29    1
     3     1    30    1
     4     1    31    1
     5     2     3    1
     6     3     4    1
     7     3    28    1
     8     3     5    1
     9     5     6    1
    10     5    32    1
    11     5    33    1
    12     6     7    1
    13     6    34    1
    14     6    35    1
    15     7     8    1
    16     7     9    1
    17     7    28    1
    18     9    10    1
    19    10    11    2
    20    10    12    1
    21    12    13    1
    22    12    17    1
    23    12    14    1
    24    14    15    1
    25    14    36    1
    26    14    37    1
    27    15    16    1
    28    15    38    1
    29    15    39    1
    30    16    17    1
    31    16    40    1
    32    16    41    1
    33    17    18   am
    34    18    19    2
    35    18    20    1
    36    20    26   ar
    37    20    21   ar
    38    21    22   ar
    39    21    42    1
    40    22    23    1
    41    22    24   ar
    42    24    25   ar
    43    24    43    1
    44    25    26   ar
    45    25    44    1
    46    26    27    1
    47    28    45    1
    48    28    46    1
@<TRIPOS>SUBSTRUCTURE
     1 ZINC000800038938        1 TEMP              0 ****  ****    0 ROOT


##########                                Name:    ZINC001079355651
##########                DOCK_Rotatable_Bonds:                   5
##########                         Heavy_Atoms:                  25
##########                    Molecular_Weight:             353.851
##########                DOCK_Rotatable_Bonds:                   5
##########                       Formal_Charge:           0.0199997
##########                     HBond_Acceptors:                   5
##########                        HBond_Donors:                   1
##########                         Heavy_Atoms:                  25
##########                          Grid_Score:          -30.214439
##########                     Grid_vdw_energy:          -29.888569
##########                      Grid_es_energy:           -0.325871
##########           Internal_energy_repulsive:            5.406744

@<TRIPOS>MOLECULE
ZINC001079355651
 45 47 1 0 0
SMALL
USER_CHARGES


@<TRIPOS>ATOM
      1 C1         -7.1075    4.3432   50.5992 C.3     1  ZINC001079355651   -0.1500
      2 C2         -6.5630    3.2835   51.5592 C.3     1  ZINC001079355651   -0.1000
      3 H3         -6.2257    3.7497   52.4849 H       1  ZINC001079355651    0.0900
      4 C4         -5.4052    2.5052   50.8980 C.3     1  ZINC001079355651    0.0300
      5 N5         -5.5769    1.1069   51.3693 N.3     1  ZINC001079355651   -0.5100
      6 C6         -4.8921    0.1626   50.4765 C.3     1  ZINC001079355651    0.1600
      7 C7         -3.4850    0.5662   50.3215 C.1     1  ZINC001079355651   -0.1400
      8 C8         -2.3628    0.8881   50.1978 C.1     1  ZINC001079355651   -0.1300
      9 C9         -0.9940    1.2807   50.0470 C.ar    1  ZINC001079355651    0.0300
     10 C10        -0.3526    1.9896   51.0633 C.ar    1  ZINC001079355651   -0.0900
     11 C11         0.9667    2.3655   50.9124 C.ar    1  ZINC001079355651   -0.1000
     12 C12         1.6537    2.0410   49.7567 C.ar    1  ZINC001079355651   -0.1000
     13 C13         1.0232    1.3381   48.7438 C.ar    1  ZINC001079355651   -0.0300
     14 Cl14        1.8936    0.9360   47.2966 Cl      1  ZINC001079355651   -0.0600
     15 C15        -0.2945    0.9511   48.8854 C.ar    1  ZINC001079355651   -0.0900
     16 C16        -7.0465    0.8916   51.3459 C.3     1  ZINC001079355651    0.0200
     17 C17        -7.6436    2.2234   51.8559 C.3     1  ZINC001079355651    0.1500
     18 H18        -8.5616    2.4578   51.3171 H       1  ZINC001079355651    0.1000
     19 N19        -7.9053    2.1456   53.2953 N.am    1  ZINC001079355651   -0.7100
     20 C20        -8.9201    1.3874   53.7557 C.2     1  ZINC001079355651    0.5600
     21 O21        -9.6170    0.7673   52.9770 O.2     1  ZINC001079355651   -0.5300
     22 C22        -9.1858    1.3101   55.2111 C.ar    1  ZINC001079355651   -0.0900
     23 C23        -8.4107    2.0337   56.1224 C.ar    1  ZINC001079355651   -0.1400
     24 C24        -8.6933    1.9322   57.4709 C.ar    1  ZINC001079355651    0.1000
     25 N25        -9.6769    1.1672   57.9007 N.ar    1  ZINC001079355651   -0.4700
     26 C26       -10.4315    0.4689   57.0757 C.ar    1  ZINC001079355651    0.1000
     27 C27       -10.2224    0.5161   55.7110 C.ar    1  ZINC001079355651   -0.1200
     28 H28        -7.9555    4.8496   51.0601 H       1  ZINC001079355651    0.0600
     29 H29        -6.3258    5.0702   50.3793 H       1  ZINC001079355651    0.0700
     30 H30        -7.4291    3.8645   49.6742 H       1  ZINC001079355651    0.0600
     31 H31        -5.4864    2.5530   49.8120 H       1  ZINC001079355651    0.0600
     32 H32        -4.4444    2.9018   51.2261 H       1  ZINC001079355651    0.0900
     33 H33        -4.9378   -0.8394   50.9034 H       1  ZINC001079355651    0.0700
     34 H34        -5.3802    0.1648   49.5019 H       1  ZINC001079355651    0.1100
     35 H35        -0.8877    2.2441   51.9661 H       1  ZINC001079355651    0.1300
     36 H36         1.4637    2.9145   51.6984 H       1  ZINC001079355651    0.1400
     37 H37         2.6860    2.3376   49.6436 H       1  ZINC001079355651    0.1400
     38 H38        -0.7856    0.4027   48.0951 H       1  ZINC001079355651    0.1400
     39 H39        -7.3846    0.6868   50.3300 H       1  ZINC001079355651    0.0600
     40 H40        -7.3215    0.0732   52.0112 H       1  ZINC001079355651    0.0900
     41 H41        -7.3482    2.6396   53.9170 H       1  ZINC001079355651    0.4000
     42 H42        -7.6030    2.6622   55.7775 H       1  ZINC001079355651    0.1400
     43 H43        -8.1000    2.4869   58.1827 H       1  ZINC001079355651    0.1600
     44 H44       -11.2266   -0.1453   57.4719 H       1  ZINC001079355651    0.1700
     45 H45       -10.8445   -0.0588   55.0410 H       1  ZINC001079355651    0.1500
@<TRIPOS>BOND
     1     1     2    1
     2     1    28    1
     3     1    29    1
     4     1    30    1
     5     2     3    1
     6     2    17    1
     7     2     4    1
     8     4     5    1
     9     4    31    1
    10     4    32    1
    11     5     6    1
    12     5    16    1
    13     6     7    1
    14     6    33    1
    15     6    34    1
    16     7     8    3
    17     8     9    1
    18     9    15   ar
    19     9    10   ar
    20    10    11   ar
    21    10    35    1
    22    11    12   ar
    23    11    36    1
    24    12    13   ar
    25    12    37    1
    26    13    14    1
    27    13    15   ar
    28    15    38    1
    29    16    17    1
    30    16    39    1
    31    16    40    1
    32    17    18    1
    33    17    19    1
    34    19    20   am
    35    19    41    1
    36    20    21    2
    37    20    22    1
    38    22    27   ar
    39    22    23   ar
    40    23    24   ar
    41    23    42    1
    42    24    25   ar
    43    24    43    1
    44    25    26   ar
    45    26    27   ar
    46    26    44    1
    47    27    45    1
@<TRIPOS>SUBSTRUCTURE
     1 ZINC001079355651        1 TEMP              0 ****  ****    0 ROOT


##########                                Name:    ZINC000279974681
##########                DOCK_Rotatable_Bonds:                   4
##########                         Heavy_Atoms:                  23
##########                    Molecular_Weight:              338.79
##########                DOCK_Rotatable_Bonds:                   4
##########                       Formal_Charge:           0.0100008
##########                     HBond_Acceptors:                   7
##########                        HBond_Donors:                   1
##########                         Heavy_Atoms:                  23
##########                          Grid_Score:          -30.211443
##########                     Grid_vdw_energy:          -30.218864
##########                      Grid_es_energy:            0.007422
##########           Internal_energy_repulsive:            7.198034

@<TRIPOS>MOLECULE
ZINC000279974681
 42 45 1 0 0
SMALL
USER_CHARGES


@<TRIPOS>ATOM
      1 C1          2.9320    1.3841   46.3709 C.3     1  ZINC000279974681   -0.1400
      2 C2          2.2015    1.1520   47.6951 C.3     1  ZINC000279974681    0.0700
      3 H3          1.7268    0.1709   47.6818 H       1  ZINC000279974681    0.0600
      4 C4          1.1337    2.2350   47.8874 C.3     1  ZINC000279974681    0.1000
      5 N5          0.5776    2.1027   49.2433 N.am    1  ZINC000279974681   -0.6300
      6 C6         -0.7541    2.0499   49.4449 C.2     1  ZINC000279974681    0.7100
      7 O7         -1.5151    2.1116   48.4986 O.2     1  ZINC000279974681   -0.5600
      8 N8         -1.2420    1.9285   50.6953 N.am    1  ZINC000279974681   -0.6700
      9 C9         -2.6272    1.8735   50.9049 C.ar    1  ZINC000279974681    0.2000
     10 C10        -3.3416    0.7444   50.5304 C.ar    1  ZINC000279974681   -0.1200
     11 C11        -4.7099    0.6904   50.7381 C.ar    1  ZINC000279974681    0.0700
     12 C12        -5.3668    1.7702   51.3227 C.ar    1  ZINC000279974681    0.0200
     13 C13        -4.6506    2.8964   51.6949 C.ar    1  ZINC000279974681   -0.0700
     14 C14        -3.2839    2.9474   51.4928 C.ar    1  ZINC000279974681   -0.0700
     15 Cl15       -2.3900    4.3602   51.9604 Cl      1  ZINC000279974681   -0.0500
     16 O16        -6.6967    1.4724   51.4168 O.3     1  ZINC000279974681   -0.3000
     17 C17        -6.9089    0.3712   50.5139 C.3     1  ZINC000279974681    0.2100
     18 O18        -5.6274   -0.2835   50.4661 O.3     1  ZINC000279974681   -0.3000
     19 C19         1.5181    2.0292   50.3726 C.3     1  ZINC000279974681    0.0800
     20 C20         2.5671    0.9563   50.0591 C.3     1  ZINC000279974681    0.1100
     21 H21         2.0937   -0.0256   50.0555 H       1  ZINC000279974681    0.0700
     22 C22         3.6661    0.9898   51.1231 C.3     1  ZINC000279974681   -0.1600
     23 C23         4.0404   -0.3333   51.7941 C.3     1  ZINC000279974681   -0.1700
     24 C24         4.9955    0.3109   50.7872 C.3     1  ZINC000279974681   -0.1600
     25 O25         3.1372    1.2152   48.7740 O.3     1  ZINC000279974681   -0.3600
     26 H26         3.6922    0.6147   46.2356 H       1  ZINC000279974681    0.0700
     27 H27         2.2177    1.3375   45.5488 H       1  ZINC000279974681    0.0800
     28 H28         3.4064    2.3653   46.3848 H       1  ZINC000279974681    0.0700
     29 H29         1.5850    3.2203   47.7703 H       1  ZINC000279974681    0.0800
     30 H30         0.3410    2.1038   47.1510 H       1  ZINC000279974681    0.1100
     31 H31        -0.6349    1.8792   51.4502 H       1  ZINC000279974681    0.4100
     32 H32        -2.8306   -0.0920   50.0768 H       1  ZINC000279974681    0.1800
     33 H33        -5.1602    3.7339   52.1480 H       1  ZINC000279974681    0.1500
     34 H34        -7.6697   -0.3040   50.9055 H       1  ZINC000279974681    0.1400
     35 H35        -7.1902    0.7350   49.5256 H       1  ZINC000279974681    0.0900
     36 H36         2.0080    2.9938   50.5057 H       1  ZINC000279974681    0.0900
     37 H37         0.9797    1.7618   51.2819 H       1  ZINC000279974681    0.0900
     38 H38         3.7019    1.8920   51.7337 H       1  ZINC000279974681    0.1100
     39 H39         4.3225   -0.3018   52.8465 H       1  ZINC000279974681    0.1000
     40 H40         3.5038   -1.2276   51.4775 H       1  ZINC000279974681    0.1000
     41 H41         5.0871   -0.1596   49.8082 H       1  ZINC000279974681    0.1000
     42 H42         5.9058    0.7662   51.1772 H       1  ZINC000279974681    0.1000
@<TRIPOS>BOND
     1     1     2    1
     2     1    26    1
     3     1    27    1
     4     1    28    1
     5     2     3    1
     6     2    25    1
     7     2     4    1
     8     4     5    1
     9     4    29    1
    10     4    30    1
    11     5     6   am
    12     5    19    1
    13     6     7    2
    14     6     8   am
    15     8     9    1
    16     8    31    1
    17     9    14   ar
    18     9    10   ar
    19    10    11   ar
    20    10    32    1
    21    11    18    1
    22    11    12   ar
    23    12    13   ar
    24    12    16    1
    25    13    14   ar
    26    13    33    1
    27    14    15    1
    28    16    17    1
    29    17    18    1
    30    17    34    1
    31    17    35    1
    32    19    20    1
    33    19    36    1
    34    19    37    1
    35    20    21    1
    36    20    22    1
    37    20    25    1
    38    22    24    1
    39    22    23    1
    40    22    38    1
    41    23    24    1
    42    23    39    1
    43    23    40    1
    44    24    41    1
    45    24    42    1
@<TRIPOS>SUBSTRUCTURE
     1 ZINC000279974681        1 TEMP              0 ****  ****    0 ROOT


##########                                Name:    ZINC000450219577
##########                DOCK_Rotatable_Bonds:                   8
##########                         Heavy_Atoms:                  26
##########                    Molecular_Weight:             353.421
##########                DOCK_Rotatable_Bonds:                   8
##########                       Formal_Charge:          -0.0199997
##########                     HBond_Acceptors:                   6
##########                        HBond_Donors:                   1
##########                         Heavy_Atoms:                  26
##########                          Grid_Score:          -30.206110
##########                     Grid_vdw_energy:          -29.348103
##########                      Grid_es_energy:           -0.858008
##########           Internal_energy_repulsive:           18.235395

@<TRIPOS>MOLECULE
ZINC000450219577
 49 51 1 0 0
SMALL
USER_CHARGES


@<TRIPOS>ATOM
      1 C1          2.6571    2.3524   51.9332 C.3     1  ZINC000450219577   -0.1800
      2 C2          2.2666    1.8904   50.5278 C.3     1  ZINC000450219577    0.1200
      3 C3          1.9769    3.1108   49.6518 C.3     1  ZINC000450219577   -0.1800
      4 C4          3.4163    1.0861   49.9177 C.3     1  ZINC000450219577   -0.1400
      5 O5          1.0802    1.0570   50.6045 O.3     1  ZINC000450219577   -0.3400
      6 C6         -0.1043    1.6863   50.6567 C.2     1  ZINC000450219577    0.4700
      7 O7         -0.2835    2.5707   51.4603 O.2     1  ZINC000450219577   -0.5000
      8 C8         -1.2104    1.2899   49.7132 C.3     1  ZINC000450219577    0.2000
      9 H9         -1.3344    0.2072   49.7331 H       1  ZINC000450219577    0.1400
     10 N10        -2.4600    1.9322   50.1283 N.am    1  ZINC000450219577   -0.7100
     11 C11        -3.5859    1.2012   50.2485 C.2     1  ZINC000450219577    0.5800
     12 O12        -3.5650    0.0093   50.0110 O.2     1  ZINC000450219577   -0.5200
     13 C13        -4.8464    1.8490   50.6692 C.ar    1  ZINC000450219577   -0.2500
     14 C14        -6.0821    1.2307   50.4469 C.ar    1  ZINC000450219577    0.1900
     15 N15        -7.1840    1.8452   50.8396 N.ar    1  ZINC000450219577   -0.5100
     16 C16        -7.1303    3.0221   51.4321 C.ar    1  ZINC000450219577    0.3800
     17 C17        -8.4152    3.6820   51.8614 C.3     1  ZINC000450219577   -0.1100
     18 C18        -9.2809    2.9441   52.8846 C.3     1  ZINC000450219577   -0.1500
     19 C19        -8.5006    4.1924   53.3013 C.3     1  ZINC000450219577   -0.1500
     20 N20        -5.9879    3.6396   51.6615 N.ar    1  ZINC000450219577   -0.5200
     21 C21        -4.8374    3.0950   51.3063 C.ar    1  ZINC000450219577    0.2200
     22 C22        -0.8599    1.7298   48.3151 C.ar    1  ZINC000450219577   -0.1100
     23 C23        -0.9492    3.0648   47.9677 C.ar    1  ZINC000450219577   -0.1000
     24 C24        -0.6276    3.4683   46.6853 C.ar    1  ZINC000450219577   -0.1200
     25 C25        -0.2165    2.5368   45.7503 C.ar    1  ZINC000450219577   -0.1100
     26 C26        -0.1263    1.2020   46.0979 C.ar    1  ZINC000450219577   -0.1200
     27 C27        -0.4438    0.7990   47.3816 C.ar    1  ZINC000450219577   -0.0800
     28 H28         1.8380    2.9255   52.3678 H       1  ZINC000450219577    0.0800
     29 H29         2.8635    1.4830   52.5572 H       1  ZINC000450219577    0.0600
     30 H30         3.5478    2.9780   51.8756 H       1  ZINC000450219577    0.0700
     31 H31         2.8676    3.7364   49.5942 H       1  ZINC000450219577    0.0700
     32 H32         1.6989    2.7816   48.6505 H       1  ZINC000450219577    0.0600
     33 H33         1.1579    3.6839   50.0864 H       1  ZINC000450219577    0.0800
     34 H34         3.6228    0.2165   50.5418 H       1  ZINC000450219577    0.0700
     35 H35         3.1382    0.7569   48.9165 H       1  ZINC000450219577    0.0700
     36 H36         4.3071    1.7117   49.8601 H       1  ZINC000450219577    0.0800
     37 H37        -2.4771    2.8835   50.3168 H       1  ZINC000450219577    0.4100
     38 H38        -6.1342    0.2672   49.9618 H       1  ZINC000450219577    0.1700
     39 H39        -8.9273    4.2595   51.0917 H       1  ZINC000450219577    0.1300
     40 H40       -10.3629    3.0359   52.7880 H       1  ZINC000450219577    0.1000
     41 H41        -8.9211    1.9812   53.2472 H       1  ZINC000450219577    0.1100
     42 H42        -7.6274    4.0508   53.9381 H       1  ZINC000450219577    0.1000
     43 H43        -9.0690    5.1054   53.4788 H       1  ZINC000450219577    0.1100
     44 H44        -3.9058    3.6068   51.4974 H       1  ZINC000450219577    0.1800
     45 H45        -1.2703    3.7926   48.6983 H       1  ZINC000450219577    0.1200
     46 H46        -0.6980    4.5112   46.4138 H       1  ZINC000450219577    0.1200
     47 H47         0.0341    2.8520   44.7482 H       1  ZINC000450219577    0.1300
     48 H48         0.1945    0.4742   45.3673 H       1  ZINC000450219577    0.1300
     49 H49        -0.3734   -0.2438   47.6532 H       1  ZINC000450219577    0.1300
@<TRIPOS>BOND
     1     1     2    1
     2     1    28    1
     3     1    29    1
     4     1    30    1
     5     2     3    1
     6     2     4    1
     7     2     5    1
     8     3    31    1
     9     3    32    1
    10     3    33    1
    11     4    34    1
    12     4    35    1
    13     4    36    1
    14     5     6    1
    15     6     7    2
    16     6     8    1
    17     8     9    1
    18     8    10    1
    19     8    22    1
    20    10    11   am
    21    10    37    1
    22    11    12    2
    23    11    13    1
    24    13    21   ar
    25    13    14   ar
    26    14    15   ar
    27    14    38    1
    28    15    16   ar
    29    16    17    1
    30    16    20   ar
    31    17    19    1
    32    17    18    1
    33    17    39    1
    34    18    19    1
    35    18    40    1
    36    18    41    1
    37    19    42    1
    38    19    43    1
    39    20    21   ar
    40    21    44    1
    41    22    27   ar
    42    22    23   ar
    43    23    24   ar
    44    23    45    1
    45    24    25   ar
    46    24    46    1
    47    25    26   ar
    48    25    47    1
    49    26    27   ar
    50    26    48    1
    51    27    49    1
@<TRIPOS>SUBSTRUCTURE
     1 ZINC000450219577        1 TEMP              0 ****  ****    0 ROOT


##########                                Name:    ZINC001193456967
##########                DOCK_Rotatable_Bonds:                   3
##########                         Heavy_Atoms:                  27
##########                    Molecular_Weight:             392.451
##########                DOCK_Rotatable_Bonds:                   3
##########                       Formal_Charge:           0.0300002
##########                     HBond_Acceptors:                   8
##########                        HBond_Donors:                   0
##########                         Heavy_Atoms:                  27
##########                          Grid_Score:          -30.205263
##########                     Grid_vdw_energy:          -27.530178
##########                      Grid_es_energy:           -2.675085
##########           Internal_energy_repulsive:           37.126209

@<TRIPOS>MOLECULE
ZINC001193456967
 48 50 1 0 0
SMALL
USER_CHARGES


@<TRIPOS>ATOM
      1 C1        -12.2544    0.5342   53.9299 C.3     1  ZINC001193456967   -0.1400
      2 C2        -11.2535    0.3760   55.0453 C.ar    1  ZINC001193456967    0.0300
      3 C3        -10.1018    1.1403   55.0541 C.ar    1  ZINC001193456967   -0.1400
      4 C4         -9.1836    0.9951   56.0774 C.ar    1  ZINC001193456967    0.0300
      5 C5         -9.4174    0.0861   57.0919 C.ar    1  ZINC001193456967   -0.6900
      6 S6         -8.2469   -0.0993   58.3958 S.o2    1  ZINC001193456967    2.7100
      7 O7         -8.1842   -1.4892   58.6842 O.2     1  ZINC001193456967   -0.9300
      8 O8         -7.1104    0.6700   58.0271 O.2     1  ZINC001193456967   -0.9400
      9 N9         -8.8886    0.6284   59.7378 N.am    1  ZINC001193456967   -1.0000
     10 C10        -9.2643    2.0497   59.8478 C.3     1  ZINC001193456967    0.1100
     11 C11        -9.2044    2.3595   61.3644 C.3     1  ZINC001193456967   -0.1200
     12 C12        -9.7392    1.0367   61.9739 C.3     1  ZINC001193456967   -0.0500
     13 H13       -10.8292    1.0241   61.9719 H       1  ZINC001193456967    0.1000
     14 C14        -9.2084    0.8402   63.3705 C.ar    1  ZINC001193456967   -0.0800
     15 C15        -9.9975    0.2342   64.3304 C.ar    1  ZINC001193456967   -0.0800
     16 C16        -9.5118    0.0536   65.6115 C.ar    1  ZINC001193456967   -0.1500
     17 C17        -8.2342    0.4792   65.9335 C.ar    1  ZINC001193456967    0.1000
     18 F18        -7.7582    0.3027   67.1855 F       1  ZINC001193456967   -0.1400
     19 C19        -7.4447    1.0857   64.9712 C.ar    1  ZINC001193456967   -0.1500
     20 C20        -7.9307    1.2609   63.6894 C.ar    1  ZINC001193456967   -0.0800
     21 C21        -9.1841   -0.0375   61.0148 C.3     1  ZINC001193456967    0.1900
     22 C22       -10.2264   -1.1381   60.8070 C.3     1  ZINC001193456967   -0.1800
     23 C23        -7.8993   -0.6357   61.5913 C.3     1  ZINC001193456967   -0.1800
     24 C24       -10.5700   -0.6775   57.0840 C.ar    1  ZINC001193456967    0.0400
     25 C25       -11.4898   -0.5296   56.0630 C.ar    1  ZINC001193456967   -0.0600
     26 N26       -12.7238   -1.3470   56.0544 N.pl3   1  ZINC001193456967    0.0200
     27 O27       -13.7739   -0.8606   55.6747 O.2     1  ZINC001193456967   -0.1400
     28 O28       -12.6890   -2.5061   56.4270 O.2     1  ZINC001193456967   -0.1500
     29 H29       -13.0353    1.2292   54.2383 H       1  ZINC001193456967    0.1100
     30 H30       -11.7523    0.9219   53.0435 H       1  ZINC001193456967    0.0900
     31 H31       -12.6994   -0.4341   53.7011 H       1  ZINC001193456967    0.0800
     32 H32        -9.9192    1.8506   54.2613 H       1  ZINC001193456967    0.1600
     33 H33        -8.2834    1.5919   56.0838 H       1  ZINC001193456967    0.1600
     34 H34        -8.5537    2.6730   59.3050 H       1  ZINC001193456967    0.0900
     35 H35       -10.2742    2.2057   59.4684 H       1  ZINC001193456967    0.0700
     36 H36        -8.1799    2.5508   61.6840 H       1  ZINC001193456967    0.0900
     37 H37        -9.8540    3.1973   61.6180 H       1  ZINC001193456967    0.0900
     38 H38       -10.9940   -0.0978   64.0791 H       1  ZINC001193456967    0.1400
     39 H39       -10.1287   -0.4193   66.3614 H       1  ZINC001193456967    0.1400
     40 H40        -6.4481    1.4184   65.2213 H       1  ZINC001193456967    0.1400
     41 H41        -7.3150    1.7336   62.9385 H       1  ZINC001193456967    0.1300
     42 H42       -11.1306   -0.7059   60.3783 H       1  ZINC001193456967    0.0700
     43 H43        -9.8276   -1.8927   60.1290 H       1  ZINC001193456967    0.0600
     44 H44       -10.4634   -1.5997   61.7655 H       1  ZINC001193456967    0.0800
     45 H45        -8.0882   -0.9963   62.6025 H       1  ZINC001193456967    0.0800
     46 H46        -7.5720   -1.4655   60.9649 H       1  ZINC001193456967    0.0900
     47 H47        -7.1225    0.1285   61.6171 H       1  ZINC001193456967    0.0700
     48 H48       -10.7528   -1.3875   57.8769 H       1  ZINC001193456967    0.1600
@<TRIPOS>BOND
     1     1     2    1
     2     1    29    1
     3     1    30    1
     4     1    31    1
     5     2    25   ar
     6     2     3   ar
     7     3     4   ar
     8     3    32    1
     9     4     5   ar
    10     4    33    1
    11     5     6    1
    12     5    24   ar
    13     6     7    2
    14     6     8    2
    15     6     9   am
    16     9    21    1
    17     9    10    1
    18    10    11    1
    19    10    34    1
    20    10    35    1
    21    11    12    1
    22    11    36    1
    23    11    37    1
    24    12    13    1
    25    12    14    1
    26    12    21    1
    27    14    20   ar
    28    14    15   ar
    29    15    16   ar
    30    15    38    1
    31    16    17   ar
    32    16    39    1
    33    17    18    1
    34    17    19   ar
    35    19    20   ar
    36    19    40    1
    37    20    41    1
    38    21    22    1
    39    21    23    1
    40    22    42    1
    41    22    43    1
    42    22    44    1
    43    23    45    1
    44    23    46    1
    45    23    47    1
    46    24    25   ar
    47    24    48    1
    48    25    26    1
    49    26    27    2
    50    26    28    2
@<TRIPOS>SUBSTRUCTURE
     1 ZINC001193456967        1 TEMP              0 ****  ****    0 ROOT


##########                                Name:    ZINC000842947763
##########                DOCK_Rotatable_Bonds:                   7
##########                         Heavy_Atoms:                  24
##########                    Molecular_Weight:             365.373
##########                DOCK_Rotatable_Bonds:                   7
##########                       Formal_Charge:          0.00999997
##########                     HBond_Acceptors:                   9
##########                        HBond_Donors:                   0
##########                         Heavy_Atoms:                  24
##########                          Grid_Score:          -30.184631
##########                     Grid_vdw_energy:          -30.038198
##########                      Grid_es_energy:           -0.146433
##########           Internal_energy_repulsive:           30.788136

@<TRIPOS>MOLECULE
ZINC000842947763
 42 43 1 0 0
SMALL
USER_CHARGES


@<TRIPOS>ATOM
      1 C1          2.6209    2.1541   46.0595 C.3     1  ZINC000842947763   -0.1600
      2 C2          1.4134    1.8036   46.9312 C.3     1  ZINC000842947763   -0.1000
      3 H3          0.8316    2.7046   47.1252 H       1  ZINC000842947763    0.1000
      4 C4          1.8962    1.2130   48.2575 C.3     1  ZINC000842947763    0.0800
      5 O5          1.6122    2.1449   49.3342 O.3     1  ZINC000842947763   -0.3500
      6 C6          1.0636    1.6360   50.4550 C.2     1  ZINC000842947763    0.5200
      7 O7          1.7626    1.0639   51.2678 O.2     1  ZINC000842947763   -0.5100
      8 C8         -0.3841    1.7731   50.6947 C.ar    1  ZINC000842947763   -0.1600
      9 C9         -1.2952    1.0059   49.9618 C.ar    1  ZINC000842947763   -0.0200
     10 C10        -2.6432    1.1383   50.1903 C.ar    1  ZINC000842947763   -0.1700
     11 C11        -3.1126    2.0388   51.1543 C.ar    1  ZINC000842947763    0.2000
     12 C12        -2.1992    2.7969   51.8775 C.ar    1  ZINC000842947763   -0.1500
     13 C13        -0.8564    2.6671   51.6603 C.ar    1  ZINC000842947763   -0.0100
     14 C14        -2.9644    3.6769   52.8413 C.3     1  ZINC000842947763   -0.0800
     15 C15        -4.4408    3.3328   52.5853 C.3     1  ZINC000842947763    0.1100
     16 N16        -4.4213    2.3161   51.5306 N.am    1  ZINC000842947763   -0.9400
     17 S17        -5.7655    1.6006   50.8801 S.o2    1  ZINC000842947763    2.6100
     18 C18        -6.7155    2.9768   50.1772 C.3     1  ZINC000842947763   -0.6700
     19 O19        -5.2547    0.7685   49.8476 O.2     1  ZINC000842947763   -0.9300
     20 O20        -6.4439    1.0467   51.9991 O.2     1  ZINC000842947763   -0.9400
     21 C21         0.5400    0.7791   46.2046 C.3     1  ZINC000842947763   -0.1600
     22 C22        -0.4143    1.5051   45.2542 C.3     1  ZINC000842947763    0.4600
     23 F23        -1.3478    0.5956   44.7459 F       1  ZINC000842947763   -0.1800
     24 F24        -1.0820    2.5196   45.9487 F       1  ZINC000842947763   -0.1800
     25 F25         0.3144    2.0641   44.1989 F       1  ZINC000842947763   -0.1800
     26 H26         2.2862    2.7010   45.1780 H       1  ZINC000842947763    0.0700
     27 H27         3.3135    2.7730   46.6299 H       1  ZINC000842947763    0.0700
     28 H28         3.1234    1.2378   45.7494 H       1  ZINC000842947763    0.0600
     29 H29         1.3793    0.2719   48.4458 H       1  ZINC000842947763    0.0800
     30 H30         2.9702    1.0338   48.2059 H       1  ZINC000842947763    0.0800
     31 H31        -0.9392    0.3101   49.2165 H       1  ZINC000842947763    0.1500
     32 H32        -3.3449    0.5446   49.6231 H       1  ZINC000842947763    0.1500
     33 H33        -0.1585    3.2626   52.2302 H       1  ZINC000842947763    0.1400
     34 H34        -2.6915    3.4418   53.8700 H       1  ZINC000842947763    0.1000
     35 H35        -2.7761    4.7291   52.6276 H       1  ZINC000842947763    0.1000
     36 H36        -4.8976    2.9308   53.4896 H       1  ZINC000842947763    0.1000
     37 H37        -4.9821    4.2168   52.2482 H       1  ZINC000842947763    0.0900
     38 H38        -6.1165    3.4822   49.4195 H       1  ZINC000842947763    0.1300
     39 H39        -7.6286    2.5930   49.7220 H       1  ZINC000842947763    0.1400
     40 H40        -6.9722    3.6823   50.9675 H       1  ZINC000842947763    0.1300
     41 H41         1.1741    0.1004   45.6342 H       1  ZINC000842947763    0.1200
     42 H42        -0.0368    0.2106   46.9343 H       1  ZINC000842947763    0.1100
@<TRIPOS>BOND
     1     1     2    1
     2     1    26    1
     3     1    27    1
     4     1    28    1
     5     2     3    1
     6     2     4    1
     7     2    21    1
     8     4     5    1
     9     4    29    1
    10     4    30    1
    11     5     6    1
    12     6     7    2
    13     6     8    1
    14     8    13   ar
    15     8     9   ar
    16     9    10   ar
    17     9    31    1
    18    10    11   ar
    19    10    32    1
    20    11    16    1
    21    11    12   ar
    22    12    13   ar
    23    12    14    1
    24    13    33    1
    25    14    15    1
    26    14    34    1
    27    14    35    1
    28    15    16    1
    29    15    36    1
    30    15    37    1
    31    16    17   am
    32    17    18    1
    33    17    19    2
    34    17    20    2
    35    18    38    1
    36    18    39    1
    37    18    40    1
    38    21    22    1
    39    21    41    1
    40    21    42    1
    41    22    23    1
    42    22    24    1
    43    22    25    1
@<TRIPOS>SUBSTRUCTURE
     1 ZINC000842947763        1 TEMP              0 ****  ****    0 ROOT


##########                                Name:    ZINC000438893617
##########                DOCK_Rotatable_Bonds:                   5
##########                         Heavy_Atoms:                  29
##########                    Molecular_Weight:             412.596
##########                DOCK_Rotatable_Bonds:                   5
##########                       Formal_Charge:           0.0600001
##########                     HBond_Acceptors:                   5
##########                        HBond_Donors:                   0
##########                         Heavy_Atoms:                  29
##########                          Grid_Score:          -30.172878
##########                     Grid_vdw_energy:          -30.098211
##########                      Grid_es_energy:           -0.074667
##########           Internal_energy_repulsive:          168.107468

@<TRIPOS>MOLECULE
ZINC000438893617
 61 66 1 0 0
SMALL
USER_CHARGES


@<TRIPOS>ATOM
      1 C1         -5.8010    3.3359   55.8224 C.3     1  ZINC000438893617   -0.1000
      2 C2         -6.3652    3.0870   54.4475 C.2     1  ZINC000438893617   -0.0900
      3 C3         -5.6835    3.3555   53.3328 C.2     1  ZINC000438893617   -0.1600
      4 C4         -4.2908    3.9292   53.2830 C.3     1  ZINC000438893617   -0.0400
      5 H5         -3.8589    4.1989   54.2467 H       1  ZINC000438893617    0.1400
      6 C6         -3.9277    4.7988   52.0777 C.3     1  ZINC000438893617   -0.1400
      7 C7         -3.3428    3.3904   52.2099 C.3     1  ZINC000438893617   -0.1800
      8 H8         -3.7263    2.6213   51.5396 H       1  ZINC000438893617    0.1300
      9 C9         -1.8829    3.2737   52.5653 C.2     1  ZINC000438893617    0.5500
     10 O10        -1.5445    3.2190   53.7286 O.2     1  ZINC000438893617   -0.5300
     11 N11        -0.9534    3.2301   51.5903 N.am    1  ZINC000438893617   -0.6100
     12 C12         0.4731    3.1084   51.9217 C.3     1  ZINC000438893617    0.0900
     13 C13         1.0438    1.8873   51.1900 C.3     1  ZINC000438893617    0.1000
     14 N14         0.6488    1.9599   49.7763 N.am    1  ZINC000438893617   -0.6100
     15 C15         1.5782    1.9153   48.8012 C.2     1  ZINC000438893617    0.5300
     16 O16         2.7525    1.8144   49.0870 O.2     1  ZINC000438893617   -0.5300
     17 C17         1.1581    1.9908   47.3559 C.3     1  ZINC000438893617   -0.0700
     18 C18         0.1847    0.8514   47.0475 C.3     1  ZINC000438893617   -0.1100
     19 C19        -0.2418    0.9282   45.5802 C.3     1  ZINC000438893617   -0.0800
     20 C20         0.9915    0.8023   44.6834 C.3     1  ZINC000438893617   -0.1100
     21 C21         1.9648    1.9417   44.9918 C.3     1  ZINC000438893617   -0.0800
     22 C22         1.2785    3.2838   44.7296 C.3     1  ZINC000438893617   -0.1100
     23 C23         0.0453    3.4097   45.6264 C.3     1  ZINC000438893617   -0.0900
     24 C24        -0.9281    2.2702   45.3180 C.3     1  ZINC000438893617   -0.1100
     25 C25         0.4717    3.3329   47.0938 C.3     1  ZINC000438893617   -0.0900
     26 C26         2.3913    1.8649   46.4591 C.3     1  ZINC000438893617   -0.1200
     27 C27        -0.7778    2.0816   49.4448 C.3     1  ZINC000438893617    0.0700
     28 C28        -1.3489    3.2971   50.1765 C.3     1  ZINC000438893617    0.1000
     29 S29        -6.6583    2.9369   51.9300 S.3     1  ZINC000438893617    0.1000
     30 C30        -7.9758    2.4051   52.9668 C.2     1  ZINC000438893617   -0.2100
     31 C31        -7.6280    2.5571   54.2455 C.2     1  ZINC000438893617   -0.1300
     32 H32        -5.2689    2.4476   56.1631 H       1  ZINC000438893617    0.0700
     33 H33        -5.1123    4.1800   55.7854 H       1  ZINC000438893617    0.0700
     34 H34        -6.6136    3.5599   56.5136 H       1  ZINC000438893617    0.0700
     35 H35        -4.6960    4.9559   51.3208 H       1  ZINC000438893617    0.1100
     36 H36        -3.2564    5.6405   52.2484 H       1  ZINC000438893617    0.1100
     37 H37         1.0011    4.0066   51.6013 H       1  ZINC000438893617    0.0800
     38 H38         0.5889    2.9772   52.9976 H       1  ZINC000438893617    0.1000
     39 H39         2.1311    1.8900   51.2666 H       1  ZINC000438893617    0.1100
     40 H40         0.6456    0.9753   51.6347 H       1  ZINC000438893617    0.0700
     41 H41         0.6737   -0.1047   47.2342 H       1  ZINC000438893617    0.0800
     42 H42        -0.6939    0.9411   47.6864 H       1  ZINC000438893617    0.0700
     43 H43        -0.9352    0.1163   45.3604 H       1  ZINC000438893617    0.0800
     44 H44         1.4805   -0.1538   44.8701 H       1  ZINC000438893617    0.0600
     45 H45         0.6876    0.8569   43.6380 H       1  ZINC000438893617    0.0700
     46 H46         2.8433    1.8520   44.3529 H       1  ZINC000438893617    0.0800
     47 H47         1.9719    4.0956   44.9494 H       1  ZINC000438893617    0.0600
     48 H48         0.9747    3.3385   43.6843 H       1  ZINC000438893617    0.0700
     49 H49        -0.4437    4.3658   45.4397 H       1  ZINC000438893617    0.0700
     50 H50        -1.2320    2.3249   44.2726 H       1  ZINC000438893617    0.0700
     51 H51        -1.8067    2.3599   45.9569 H       1  ZINC000438893617    0.0600
     52 H52        -0.4068    3.4226   47.7327 H       1  ZINC000438893617    0.0700
     53 H53         1.1652    4.1447   47.3136 H       1  ZINC000438893617    0.0700
     54 H54         3.0847    2.6768   46.6789 H       1  ZINC000438893617    0.0700
     55 H55         2.8803    0.9089   46.6459 H       1  ZINC000438893617    0.0800
     56 H56        -0.8935    2.2128   48.3690 H       1  ZINC000438893617    0.1300
     57 H57        -1.3057    1.1834   49.7653 H       1  ZINC000438893617    0.0800
     58 H58        -2.4361    3.2932   50.0989 H       1  ZINC000438893617    0.1100
     59 H59        -0.9515    4.2105   49.7338 H       1  ZINC000438893617    0.0700
     60 H60        -8.9201    2.0114   52.6209 H       1  ZINC000438893617    0.1700
     61 H61        -8.2849    2.2942   55.0614 H       1  ZINC000438893617    0.1400
@<TRIPOS>BOND
     1     1     2    1
     2     1    32    1
     3     1    33    1
     4     1    34    1
     5     2    31    1
     6     2     3    2
     7     3     4    1
     8     3    29    1
     9     4     5    1
    10     4     7    1
    11     4     6    1
    12     6     7    1
    13     6    35    1
    14     6    36    1
    15     7     8    1
    16     7     9    1
    17     9    10    2
    18     9    11   am
    19    11    28    1
    20    11    12    1
    21    12    13    1
    22    12    37    1
    23    12    38    1
    24    13    14    1
    25    13    39    1
    26    13    40    1
    27    14    15   am
    28    14    27    1
    29    15    16    2
    30    15    17    1
    31    17    25    1
    32    17    26    1
    33    17    18    1
    34    18    19    1
    35    18    41    1
    36    18    42    1
    37    19    24    1
    38    19    20    1
    39    19    43    1
    40    20    21    1
    41    20    44    1
    42    20    45    1
    43    21    22    1
    44    21    26    1
    45    21    46    1
    46    22    23    1
    47    22    47    1
    48    22    48    1
    49    23    24    1
    50    23    25    1
    51    23    49    1
    52    24    50    1
    53    24    51    1
    54    25    52    1
    55    25    53    1
    56    26    54    1
    57    26    55    1
    58    27    28    1
    59    27    56    1
    60    27    57    1
    61    28    58    1
    62    28    59    1
    63    29    30    1
    64    30    31    2
    65    30    60    1
    66    31    61    1
@<TRIPOS>SUBSTRUCTURE
     1 ZINC000438893617        1 TEMP              0 ****  ****    0 ROOT


##########                                Name:    ZINC000347662449
##########                DOCK_Rotatable_Bonds:                   5
##########                         Heavy_Atoms:                  23
##########                    Molecular_Weight:              327.45
##########                DOCK_Rotatable_Bonds:                   5
##########                       Formal_Charge:                0.03
##########                     HBond_Acceptors:                   5
##########                        HBond_Donors:                   0
##########                         Heavy_Atoms:                  23
##########                          Grid_Score:          -30.167429
##########                     Grid_vdw_energy:          -30.000937
##########                      Grid_es_energy:           -0.166493
##########           Internal_energy_repulsive:            4.878737

@<TRIPOS>MOLECULE
ZINC000347662449
 44 46 1 0 0
SMALL
USER_CHARGES


@<TRIPOS>ATOM
      1 C1          2.4313    1.6285   43.3846 C.2     1  ZINC000347662449   -0.1800
      2 C2          1.7491    0.5706   43.7475 C.2     1  ZINC000347662449   -0.1700
      3 C3          0.2945    0.7027   44.1185 C.3     1  ZINC000347662449    0.1600
      4 N4          0.1776    0.9382   45.5597 N.am    1  ZINC000347662449   -0.6200
      5 C5          1.1162    0.4204   46.5622 C.3     1  ZINC000347662449    0.1100
      6 C6          0.8610    1.2561   47.8361 C.3     1  ZINC000347662449   -0.1100
      7 C7         -0.6061    1.7002   47.6331 C.3     1  ZINC000347662449   -0.1200
      8 H8         -1.2865    1.0071   48.1279 H       1  ZINC000347662449    0.1400
      9 S9         -0.8514    3.3811   48.2584 S.3     1  ZINC000347662449    0.0300
     10 C10        -0.3573    3.1589   49.9351 C.2     1  ZINC000347662449    0.1900
     11 N11         0.8192    3.4573   50.4353 N.2     1  ZINC000347662449   -0.4500
     12 C12         0.8365    3.1541   51.7443 C.2     1  ZINC000347662449   -0.0100
     13 C13        -0.3636    2.6503   52.0791 C.2     1  ZINC000347662449   -0.0400
     14 N14        -1.1339    2.6533   50.9357 N.pl3   1  ZINC000347662449   -0.4000
     15 C15        -2.4599    2.2128   50.8215 C.ar    1  ZINC000347662449    0.1100
     16 C16        -2.7279    0.9051   50.4408 C.ar    1  ZINC000347662449   -0.1100
     17 C17        -4.0356    0.4739   50.3291 C.ar    1  ZINC000347662449   -0.1000
     18 C18        -5.0768    1.3434   50.5960 C.ar    1  ZINC000347662449   -0.0800
     19 C19        -6.5022    0.8697   50.4737 C.3     1  ZINC000347662449   -0.1200
     20 C20        -4.8129    2.6468   50.9755 C.ar    1  ZINC000347662449   -0.0700
     21 C21        -5.9507    3.5914   51.2656 C.3     1  ZINC000347662449   -0.1200
     22 C22        -3.5077    3.0821   51.0945 C.ar    1  ZINC000347662449   -0.1100
     23 C23        -0.7999    1.6608   46.1333 C.2     1  ZINC000347662449    0.5300
     24 O24        -1.7091    2.1972   45.5360 O.2     1  ZINC000347662449   -0.4900
     25 H25         1.9511    2.5954   43.3515 H       1  ZINC000347662449    0.1000
     26 H26         3.4748    1.5346   43.1230 H       1  ZINC000347662449    0.1000
     27 H27         2.2293   -0.3962   43.7806 H       1  ZINC000347662449    0.1100
     28 H28        -0.1440    1.5408   43.5767 H       1  ZINC000347662449    0.0900
     29 H29        -0.2321   -0.2148   43.8563 H       1  ZINC000347662449    0.0900
     30 H30         0.9173   -0.6336   46.7563 H       1  ZINC000347662449    0.0800
     31 H31         2.1431    0.5548   46.2223 H       1  ZINC000347662449    0.0900
     32 H32         0.9626    0.6430   48.7317 H       1  ZINC000347662449    0.1100
     33 H33         1.5273    2.1178   47.8774 H       1  ZINC000347662449    0.0900
     34 H34         1.6727    3.2920   52.4137 H       1  ZINC000347662449    0.1800
     35 H35        -0.6679    2.3109   53.0582 H       1  ZINC000347662449    0.1800
     36 H36        -1.9150    0.2255   50.2319 H       1  ZINC000347662449    0.1300
     37 H37        -4.2447   -0.5434   50.0326 H       1  ZINC000347662449    0.1300
     38 H38        -6.8344    0.4665   51.4304 H       1  ZINC000347662449    0.0800
     39 H39        -7.1403    1.7070   50.1911 H       1  ZINC000347662449    0.0700
     40 H40        -6.5628    0.0931   49.7113 H       1  ZINC000347662449    0.0700
     41 H41        -6.2139    3.5299   52.3216 H       1  ZINC000347662449    0.0800
     42 H42        -5.6472    4.6105   51.0256 H       1  ZINC000347662449    0.0700
     43 H43        -6.8141    3.3173   50.6594 H       1  ZINC000347662449    0.0800
     44 H44        -3.3021    4.0999   51.3911 H       1  ZINC000347662449    0.1300
@<TRIPOS>BOND
     1     1     2    2
     2     1    25    1
     3     1    26    1
     4     2     3    1
     5     2    27    1
     6     3     4    1
     7     3    28    1
     8     3    29    1
     9     4    23   am
    10     4     5    1
    11     5     6    1
    12     5    30    1
    13     5    31    1
    14     6     7    1
    15     6    32    1
    16     6    33    1
    17     7     8    1
    18     7     9    1
    19     7    23    1
    20     9    10    1
    21    10    14    1
    22    10    11    2
    23    11    12    1
    24    12    13    2
    25    12    34    1
    26    13    14    1
    27    13    35    1
    28    14    15    1
    29    15    22   ar
    30    15    16   ar
    31    16    17   ar
    32    16    36    1
    33    17    18   ar
    34    17    37    1
    35    18    19    1
    36    18    20   ar
    37    19    38    1
    38    19    39    1
    39    19    40    1
    40    20    21    1
    41    20    22   ar
    42    21    41    1
    43    21    42    1
    44    21    43    1
    45    22    44    1
    46    23    24    2
@<TRIPOS>SUBSTRUCTURE
     1 ZINC000347662449        1 TEMP              0 ****  ****    0 ROOT


##########                                Name:    ZINC001018118384
##########                DOCK_Rotatable_Bonds:                   5
##########                         Heavy_Atoms:                  25
##########                    Molecular_Weight:             347.374
##########                DOCK_Rotatable_Bonds:                   5
##########                       Formal_Charge:           0.0299997
##########                     HBond_Acceptors:                   9
##########                        HBond_Donors:                   2
##########                         Heavy_Atoms:                  25
##########                          Grid_Score:          -30.164614
##########                     Grid_vdw_energy:          -28.932623
##########                      Grid_es_energy:           -1.231991
##########           Internal_energy_repulsive:           97.582062

@<TRIPOS>MOLECULE
ZINC001018118384
 46 48 1 0 0
SMALL
USER_CHARGES


@<TRIPOS>ATOM
      1 C1         -0.9737    0.9766   45.1162 C.3     1  ZINC001018118384   -0.0700
      2 C2          0.2425    1.2371   45.9671 C.2     1  ZINC001018118384    0.2200
      3 N3          0.3080    1.0860   47.2584 N.2     1  ZINC001018118384   -0.4600
      4 C4          1.5574    1.4140   47.6760 C.2     1  ZINC001018118384   -0.0700
      5 C5          2.0485    1.3803   49.0645 C.2     1  ZINC001018118384    0.6100
      6 O6          2.5791    0.3753   49.4977 O.2     1  ZINC001018118384   -0.5400
      7 N7          1.9096    2.4631   49.8549 N.am    1  ZINC001018118384   -0.5900
      8 C8          1.2654    3.6824   49.3478 C.3     1  ZINC001018118384    0.0700
      9 C9          0.1332    4.0751   50.3021 C.3     1  ZINC001018118384    0.1300
     10 H10        -0.2905    5.0299   49.9904 H       1  ZINC001018118384    0.1100
     11 N11        -0.9087    3.0456   50.2745 N.am    1  ZINC001018118384   -0.7000
     12 C12        -2.1290    3.3079   50.7831 C.2     1  ZINC001018118384    0.6000
     13 O13        -2.3645    4.3976   51.2659 O.2     1  ZINC001018118384   -0.4900
     14 C14        -3.1835    2.2669   50.7536 C.2     1  ZINC001018118384    0.0300
     15 C15        -3.0170    0.9563   50.4178 C.2     1  ZINC001018118384   -0.2300
     16 C16        -4.3197    0.3984   50.5504 C.2     1  ZINC001018118384    0.4800
     17 O17        -4.6493   -0.7588   50.3500 O.2     1  ZINC001018118384   -0.5200
     18 N18        -5.1135    1.4145   50.9442 N.am    1  ZINC001018118384   -0.4500
     19 C19        -6.5500    1.2940   51.2054 C.3     1  ZINC001018118384    0.1100
     20 O20        -4.4790    2.4376   51.0583 O.3     1  ZINC001018118384    0.0000
     21 C21         0.6892    4.2022   51.7222 C.3     1  ZINC001018118384   -0.1300
     22 C22         1.2548    2.8534   52.1728 C.3     1  ZINC001018118384   -0.1300
     23 C23         2.3943    2.4447   51.2418 C.3     1  ZINC001018118384    0.1400
     24 H24         3.2199    3.1492   51.3436 H       1  ZINC001018118384    0.0700
     25 C25         2.8732    1.0375   51.6042 C.3     1  ZINC001018118384   -0.1400
     26 C26         2.2756    1.7803   46.5754 C.2     1  ZINC001018118384    0.0400
     27 N27         1.4491    1.6616   45.5096 N.pl3   1  ZINC001018118384   -0.5600
     28 H28        -0.9707   -0.0623   44.7864 H       1  ZINC001018118384    0.0900
     29 H29        -1.8737    1.1698   45.6999 H       1  ZINC001018118384    0.1000
     30 H30        -0.9563    1.6339   44.2468 H       1  ZINC001018118384    0.0800
     31 H31         1.9972    4.4886   49.2977 H       1  ZINC001018118384    0.0800
     32 H32         0.8575    3.4941   48.3547 H       1  ZINC001018118384    0.1500
     33 H33        -0.7204    2.1751   49.8901 H       1  ZINC001018118384    0.4100
     34 H34        -2.1070    0.4570   50.1195 H       1  ZINC001018118384    0.1900
     35 H35        -6.7085    1.0377   52.2529 H       1  ZINC001018118384    0.0800
     36 H36        -7.0402    2.2423   50.9852 H       1  ZINC001018118384    0.0900
     37 H37        -6.9700    0.5123   50.5725 H       1  ZINC001018118384    0.1100
     38 H38         1.4811    4.9510   51.7364 H       1  ZINC001018118384    0.0900
     39 H39        -0.1094    4.5055   52.3990 H       1  ZINC001018118384    0.0800
     40 H40         1.6295    2.9386   53.1929 H       1  ZINC001018118384    0.0800
     41 H41         0.4694    2.0986   52.1353 H       1  ZINC001018118384    0.0600
     42 H42         2.0426    0.3372   51.5161 H       1  ZINC001018118384    0.0700
     43 H43         3.6728    0.7399   50.9259 H       1  ZINC001018118384    0.0800
     44 H44         3.2453    1.0329   52.6287 H       1  ZINC001018118384    0.0400
     45 H45         3.3072    2.0992   46.5571 H       1  ZINC001018118384    0.1900
     46 H46         1.6760    1.8521   44.5860 H       1  ZINC001018118384    0.4300
@<TRIPOS>BOND
     1     1     2    1
     2     1    28    1
     3     1    29    1
     4     1    30    1
     5     2    27    1
     6     2     3    2
     7     3     4    1
     8     4     5    1
     9     4    26    2
    10     5     6    2
    11     5     7   am
    12     7    23    1
    13     7     8    1
    14     8     9    1
    15     8    31    1
    16     8    32    1
    17     9    10    1
    18     9    11    1
    19     9    21    1
    20    11    12   am
    21    11    33    1
    22    12    13    2
    23    12    14    1
    24    14    20    1
    25    14    15    2
    26    15    16    1
    27    15    34    1
    28    16    17    2
    29    16    18   am
    30    18    19    1
    31    18    20    1
    32    19    35    1
    33    19    36    1
    34    19    37    1
    35    21    22    1
    36    21    38    1
    37    21    39    1
    38    22    23    1
    39    22    40    1
    40    22    41    1
    41    23    24    1
    42    23    25    1
    43    25    42    1
    44    25    43    1
    45    25    44    1
    46    26    27    1
    47    26    45    1
    48    27    46    1
@<TRIPOS>SUBSTRUCTURE
     1 ZINC001018118384        1 TEMP              0 ****  ****    0 ROOT


##########                                Name:    ZINC000446721380
##########                DOCK_Rotatable_Bonds:                   8
##########                         Heavy_Atoms:                  26
##########                    Molecular_Weight:             419.318
##########                DOCK_Rotatable_Bonds:                   8
##########                       Formal_Charge:           0.0199992
##########                     HBond_Acceptors:                   5
##########                        HBond_Donors:                   2
##########                         Heavy_Atoms:                  26
##########                          Grid_Score:          -30.162685
##########                     Grid_vdw_energy:          -30.916605
##########                      Grid_es_energy:            0.753920
##########           Internal_energy_repulsive:            6.582832

@<TRIPOS>MOLECULE
ZINC000446721380
 49 51 1 0 0
SMALL
USER_CHARGES


@<TRIPOS>ATOM
      1 C1         -6.3677    2.5864   53.0708 C.3     1  ZINC000446721380   -0.1200
      2 C2         -5.2026    2.2309   52.1834 C.ar    1  ZINC000446721380   -0.0300
      3 C3         -5.2738    1.1219   51.3613 C.ar    1  ZINC000446721380   -0.1600
      4 C4         -4.2065    0.7930   50.5459 C.ar    1  ZINC000446721380   -0.0500
      5 C5         -3.0661    1.5724   50.5510 C.ar    1  ZINC000446721380   -0.1500
      6 C6         -1.9035    1.2137   49.6619 C.3     1  ZINC000446721380    0.1900
      7 N7         -1.9764    1.9940   48.4242 N.am    1  ZINC000446721380   -0.7300
      8 C8         -1.1515    1.7077   47.3975 C.2     1  ZINC000446721380    0.7100
      9 O9         -0.3478    0.8010   47.4980 O.2     1  ZINC000446721380   -0.5700
     10 N10        -1.2176    2.4267   46.2594 N.am    1  ZINC000446721380   -0.6900
     11 C11        -0.3607    2.1294   45.1930 C.ar    1  ZINC000446721380    0.2000
     12 C12        -0.4136    0.8826   44.5850 C.ar    1  ZINC000446721380   -0.1200
     13 C13         0.4330    0.5923   43.5325 C.ar    1  ZINC000446721380   -0.0800
     14 C14         1.3324    1.5418   43.0842 C.ar    1  ZINC000446721380   -0.1300
     15 C15         1.3884    2.7849   43.6877 C.ar    1  ZINC000446721380   -0.0700
     16 C16         0.5406    3.0837   44.7370 C.ar    1  ZINC000446721380   -0.1300
     17 Br17        0.6171    4.7838   45.5613 Br      1  ZINC000446721380   -0.0500
     18 C18        -2.9922    2.6861   51.3754 C.ar    1  ZINC000446721380    0.1500
     19 O19        -1.8715    3.4548   51.3820 O.3     1  ZINC000446721380   -0.3100
     20 C20        -1.0672    3.4190   52.5625 C.3     1  ZINC000446721380    0.0700
     21 C21         0.3727    3.7982   52.2104 C.3     1  ZINC000446721380   -0.1200
     22 H22         0.3856    4.6268   51.5023 H       1  ZINC000446721380    0.1000
     23 C23         1.1279    2.5776   51.6303 C.3     1  ZINC000446721380   -0.1500
     24 C24         2.5228    2.7144   52.2923 C.3     1  ZINC000446721380    0.0500
     25 O25         2.2201    3.1973   53.6188 O.3     1  ZINC000446721380   -0.3800
     26 C26         1.1607    4.1640   53.4831 C.3     1  ZINC000446721380    0.0500
     27 C27        -4.0664    3.0170   52.1882 C.ar    1  ZINC000446721380   -0.2100
     28 H28        -7.0450    3.2497   52.5329 H       1  ZINC000446721380    0.0800
     29 H29        -6.8985    1.6777   53.3549 H       1  ZINC000446721380    0.0700
     30 H30        -6.0022    3.0889   53.9664 H       1  ZINC000446721380    0.0700
     31 H31        -6.1645    0.5109   51.3560 H       1  ZINC000446721380    0.1300
     32 H32        -4.2644   -0.0741   49.9047 H       1  ZINC000446721380    0.1300
     33 H33        -0.9694    1.4368   50.1775 H       1  ZINC000446721380    0.0800
     34 H34        -1.9423    0.1507   49.4241 H       1  ZINC000446721380    0.0800
     35 H35        -2.6185    2.7166   48.3435 H       1  ZINC000446721380    0.4000
     36 H36        -1.8588    3.1501   46.1791 H       1  ZINC000446721380    0.4100
     37 H37        -1.1156    0.1401   44.9347 H       1  ZINC000446721380    0.1500
     38 H38         0.3924   -0.3778   43.0595 H       1  ZINC000446721380    0.1300
     39 H39         1.9930    1.3121   42.2613 H       1  ZINC000446721380    0.1300
     40 H40         2.0926    3.5242   43.3357 H       1  ZINC000446721380    0.1400
     41 H41        -1.4612    4.1266   53.2921 H       1  ZINC000446721380    0.0700
     42 H42        -1.0856    2.4141   52.9844 H       1  ZINC000446721380    0.0700
     43 H43         0.6466    1.6456   51.9264 H       1  ZINC000446721380    0.0800
     44 H44         1.2040    2.6470   50.5452 H       1  ZINC000446721380    0.0900
     45 H45         3.0212    1.7463   52.3407 H       1  ZINC000446721380    0.1000
     46 H46         3.1352    3.4360   51.7516 H       1  ZINC000446721380    0.0600
     47 H47         1.5820    5.1646   53.3870 H       1  ZINC000446721380    0.0600
     48 H48         0.5037    4.1182   54.3517 H       1  ZINC000446721380    0.0900
     49 H49        -4.0112    3.8834   52.8307 H       1  ZINC000446721380    0.1300
@<TRIPOS>BOND
     1     1     2    1
     2     1    28    1
     3     1    29    1
     4     1    30    1
     5     2    27   ar
     6     2     3   ar
     7     3     4   ar
     8     3    31    1
     9     4     5   ar
    10     4    32    1
    11     5     6    1
    12     5    18   ar
    13     6     7    1
    14     6    33    1
    15     6    34    1
    16     7     8   am
    17     7    35    1
    18     8     9    2
    19     8    10   am
    20    10    11    1
    21    10    36    1
    22    11    16   ar
    23    11    12   ar
    24    12    13   ar
    25    12    37    1
    26    13    14   ar
    27    13    38    1
    28    14    15   ar
    29    14    39    1
    30    15    16   ar
    31    15    40    1
    32    16    17    1
    33    18    19    1
    34    18    27   ar
    35    19    20    1
    36    20    21    1
    37    20    41    1
    38    20    42    1
    39    21    22    1
    40    21    26    1
    41    21    23    1
    42    23    24    1
    43    23    43    1
    44    23    44    1
    45    24    25    1
    46    24    45    1
    47    24    46    1
    48    25    26    1
    49    26    47    1
    50    26    48    1
    51    27    49    1
@<TRIPOS>SUBSTRUCTURE
     1 ZINC000446721380        1 TEMP              0 ****  ****    0 ROOT


##########                                Name:    ZINC000652498551
##########                DOCK_Rotatable_Bonds:                   6
##########                         Heavy_Atoms:                  23
##########                    Molecular_Weight:             388.277
##########                DOCK_Rotatable_Bonds:                   6
##########                       Formal_Charge:          -0.0400001
##########                     HBond_Acceptors:                   5
##########                        HBond_Donors:                   1
##########                         Heavy_Atoms:                  23
##########                          Grid_Score:          -30.158552
##########                     Grid_vdw_energy:          -29.489998
##########                      Grid_es_energy:           -0.668554
##########           Internal_energy_repulsive:           20.648695

@<TRIPOS>MOLECULE
ZINC000652498551
 46 47 1 0 0
SMALL
USER_CHARGES


@<TRIPOS>ATOM
      1 C1          1.8904    3.5702   51.8438 C.3     1  ZINC000652498551   -0.1300
      2 C2          0.3806    3.8139   51.7954 C.3     1  ZINC000652498551   -0.1300
      3 C3         -0.1415    4.0624   53.2119 C.3     1  ZINC000652498551   -0.1300
      4 C4          0.0935    5.0179   50.9357 C.2     1  ZINC000652498551    0.5000
      5 O5         -1.0574    5.3057   50.6545 O.co2   1  ZINC000652498551   -0.7000
      6 O6          1.0122    5.7042   50.5214 O.co2   1  ZINC000652498551   -0.6700
      7 C7         -0.3153    2.5868   51.2032 C.3     1  ZINC000652498551   -0.0600
      8 H8          0.0625    1.6857   51.6863 H       1  ZINC000652498551    0.0700
      9 C9         -0.0356    2.5164   49.6992 C.3     1  ZINC000652498551   -0.1500
     10 C10        -0.7997    1.3306   49.1029 C.3     1  ZINC000652498551   -0.1400
     11 C11        -2.2908    1.4860   49.4088 C.3     1  ZINC000652498551   -0.0100
     12 N12        -2.4950    1.5205   50.8619 N.4     1  ZINC000652498551   -0.3800
     13 H13        -2.1118    0.6831   51.2744 H       1  ZINC000652498551    0.4200
     14 C14        -3.9333    1.5931   51.1514 C.3     1  ZINC000652498551    0.0000
     15 C15        -4.5967    0.2665   50.7757 C.3     1  ZINC000652498551    0.0200
     16 O16        -5.6892    0.5146   49.8886 O.3     1  ZINC000652498551   -0.3100
     17 C17        -6.5560    1.5010   50.2382 C.ar    1  ZINC000652498551    0.1600
     18 C18        -7.3514    1.3590   51.3652 C.ar    1  ZINC000652498551   -0.2300
     19 C19        -8.2336    2.3649   51.7194 C.ar    1  ZINC000652498551    0.1500
     20 F20        -9.0089    2.2275   52.8171 F       1  ZINC000652498551   -0.1200
     21 C21        -8.3214    3.5120   50.9490 C.ar    1  ZINC000652498551   -0.1600
     22 C22        -7.5286    3.6541   49.8242 C.ar    1  ZINC000652498551   -0.0300
     23 Br23       -7.6508    5.2221   48.7744 Br      1  ZINC000652498551   -0.0100
     24 C24        -6.6422    2.6540   49.4709 C.ar    1  ZINC000652498551   -0.1300
     25 C25        -1.8243    2.6950   51.4323 C.3     1  ZINC000652498551   -0.0200
     26 H26         2.0981    2.6994   52.4656 H       1  ZINC000652498551    0.0400
     27 H27         2.2624    3.3932   50.8347 H       1  ZINC000652498551    0.0500
     28 H28         2.3862    4.4445   52.2657 H       1  ZINC000652498551    0.0600
     29 H29         0.3543    4.9366   53.6337 H       1  ZINC000652498551    0.0700
     30 H30        -1.2170    4.2361   53.1774 H       1  ZINC000652498551    0.0400
     31 H31         0.0662    3.1916   53.8337 H       1  ZINC000652498551    0.0500
     32 H32        -0.3663    3.4395   49.2234 H       1  ZINC000652498551    0.1300
     33 H33         1.0332    2.3819   49.5332 H       1  ZINC000652498551    0.0800
     34 H34        -0.6500    1.3070   48.0235 H       1  ZINC000652498551    0.1000
     35 H35        -0.4326    0.4030   49.5422 H       1  ZINC000652498551    0.0700
     36 H36        -2.6569    2.4136   48.9688 H       1  ZINC000652498551    0.1300
     37 H37        -2.8378    0.6435   48.9854 H       1  ZINC000652498551    0.1100
     38 H38        -4.0809    1.7849   52.2141 H       1  ZINC000652498551    0.1400
     39 H39        -4.3805    2.4000   50.5709 H       1  ZINC000652498551    0.1500
     40 H40        -3.8680   -0.3776   50.2835 H       1  ZINC000652498551    0.1100
     41 H41        -4.9647   -0.2238   51.6770 H       1  ZINC000652498551    0.0900
     42 H42        -7.2828    0.4641   51.9659 H       1  ZINC000652498551    0.1500
     43 H43        -9.0097    4.2965   51.2263 H       1  ZINC000652498551    0.1500
     44 H44        -6.0235    2.7660   48.5929 H       1  ZINC000652498551    0.1500
     45 H45        -2.0273    2.7449   52.5020 H       1  ZINC000652498551    0.1100
     46 H46        -2.1998    3.5973   50.9496 H       1  ZINC000652498551    0.1700
@<TRIPOS>BOND
     1     1     2    1
     2     1    26    1
     3     1    27    1
     4     1    28    1
     5     2     3    1
     6     2     4    1
     7     2     7    1
     8     3    29    1
     9     3    30    1
    10     3    31    1
    11     4     5   ar
    12     4     6   ar
    13     7     8    1
    14     7    25    1
    15     7     9    1
    16     9    10    1
    17     9    32    1
    18     9    33    1
    19    10    11    1
    20    10    34    1
    21    10    35    1
    22    11    12    1
    23    11    36    1
    24    11    37    1
    25    12    13    1
    26    12    14    1
    27    12    25    1
    28    14    15    1
    29    14    38    1
    30    14    39    1
    31    15    16    1
    32    15    40    1
    33    15    41    1
    34    16    17    1
    35    17    24   ar
    36    17    18   ar
    37    18    19   ar
    38    18    42    1
    39    19    20    1
    40    19    21   ar
    41    21    22   ar
    42    21    43    1
    43    22    23    1
    44    22    24   ar
    45    24    44    1
    46    25    45    1
    47    25    46    1
@<TRIPOS>SUBSTRUCTURE
     1 ZINC000652498551        1 TEMP              0 ****  ****    0 ROOT


##########                                Name:    ZINC000462219577
##########                DOCK_Rotatable_Bonds:                   8
##########                         Heavy_Atoms:                  31
##########                    Molecular_Weight:             418.539
##########                DOCK_Rotatable_Bonds:                   8
##########                       Formal_Charge:         -0.00999914
##########                     HBond_Acceptors:                   6
##########                        HBond_Donors:                   2
##########                         Heavy_Atoms:                  31
##########                          Grid_Score:          -30.148232
##########                     Grid_vdw_energy:          -28.897806
##########                      Grid_es_energy:           -1.250424
##########           Internal_energy_repulsive:           15.270049

@<TRIPOS>MOLECULE
ZINC000462219577
 61 64 1 0 0
SMALL
USER_CHARGES


@<TRIPOS>ATOM
      1 C1         -9.3012    4.5859   49.8714 C.3     1  ZINC000462219577   -0.0700
      2 C2         -8.3862    4.0320   50.9330 C.2     1  ZINC000462219577    0.0800
      3 N3         -8.6355    3.9947   52.2172 N.2     1  ZINC000462219577   -0.2900
      4 N4         -7.5385    3.4060   52.8595 N.pl3   1  ZINC000462219577   -0.3200
      5 C5         -7.4120    3.1818   54.2375 C.ar    1  ZINC000462219577    0.1500
      6 C6         -8.3983    2.4848   54.9222 C.ar    1  ZINC000462219577   -0.1100
      7 C7         -8.2709    2.2655   56.2799 C.ar    1  ZINC000462219577   -0.1000
      8 C8         -7.1625    2.7399   56.9573 C.ar    1  ZINC000462219577   -0.1200
      9 C9         -6.1788    3.4348   56.2781 C.ar    1  ZINC000462219577   -0.1000
     10 C10        -6.2975    3.6515   54.9192 C.ar    1  ZINC000462219577   -0.1300
     11 C11        -6.6235    3.0919   51.9147 C.2     1  ZINC000462219577    0.0900
     12 C12        -5.2866    2.4392   52.1545 C.3     1  ZINC000462219577   -0.0800
     13 C13        -4.7883    1.8046   50.8545 C.3     1  ZINC000462219577    0.1700
     14 H14        -4.9064    2.5139   50.0354 H       1  ZINC000462219577    0.1000
     15 C15        -5.6022    0.5433   50.5581 C.3     1  ZINC000462219577   -0.1600
     16 N16        -3.3736    1.4512   50.9945 N.am    1  ZINC000462219577   -0.7400
     17 C17        -2.4247    2.3965   50.8442 C.2     1  ZINC000462219577    0.7100
     18 O18        -2.7431    3.5429   50.5939 O.2     1  ZINC000462219577   -0.5800
     19 N19        -1.1230    2.0711   50.9715 N.am    1  ZINC000462219577   -0.7400
     20 C20        -0.0918    3.0990   50.8099 C.3     1  ZINC000462219577    0.1600
     21 H21        -0.5320    4.0843   50.9632 H       1  ZINC000462219577    0.1000
     22 C22         1.0238    2.8712   51.8345 C.3     1  ZINC000462219577   -0.1700
     23 C23         1.6865    1.5180   51.5633 C.3     1  ZINC000462219577    0.0700
     24 O24         2.1882    1.4945   50.2255 O.3     1  ZINC000462219577   -0.3700
     25 C25         1.1829    1.6552   49.2225 C.3     1  ZINC000462219577    0.1400
     26 H26         0.4428    0.8609   49.3190 H       1  ZINC000462219577    0.0600
     27 C27         1.8190    1.5863   47.8580 C.ar    1  ZINC000462219577   -0.0900
     28 C28         1.3542    0.6796   46.9237 C.ar    1  ZINC000462219577   -0.0900
     29 C29         1.9376    0.6165   45.6721 C.ar    1  ZINC000462219577   -0.1200
     30 C30         2.9856    1.4601   45.3547 C.ar    1  ZINC000462219577   -0.1200
     31 C31         3.4498    2.3674   46.2887 C.ar    1  ZINC000462219577   -0.1200
     32 C32         2.8636    2.4335   47.5388 C.ar    1  ZINC000462219577   -0.1100
     33 C33         0.4985    3.0153   49.3989 C.3     1  ZINC000462219577   -0.1500
     34 C34        -7.1266    3.4634   50.7147 C.2     1  ZINC000462219577   -0.2600
     35 H35        -9.9576    3.7949   49.5087 H       1  ZINC000462219577    0.0800
     36 H36        -9.9019    5.3915   50.2937 H       1  ZINC000462219577    0.0700
     37 H37        -8.7059    4.9720   49.0440 H       1  ZINC000462219577    0.0800
     38 H38        -9.2645    2.1146   54.3939 H       1  ZINC000462219577    0.1300
     39 H39        -9.0377    1.7233   56.8132 H       1  ZINC000462219577    0.1300
     40 H40        -7.0653    2.5675   58.0190 H       1  ZINC000462219577    0.1300
     41 H41        -5.3147    3.8047   56.8099 H       1  ZINC000462219577    0.1300
     42 H42        -5.5287    4.1943   54.3892 H       1  ZINC000462219577    0.1300
     43 H43        -4.5707    3.1895   52.4902 H       1  ZINC000462219577    0.0900
     44 H44        -5.3902    1.6686   52.9184 H       1  ZINC000462219577    0.1100
     45 H45        -5.4842   -0.1661   51.3772 H       1  ZINC000462219577    0.0600
     46 H46        -6.6548    0.8062   50.4539 H       1  ZINC000462219577    0.0700
     47 H47        -5.2472    0.0912   49.6320 H       1  ZINC000462219577    0.0700
     48 H48        -3.1197    0.5368   51.1954 H       1  ZINC000462219577    0.3900
     49 H49        -0.8691    1.1562   51.1701 H       1  ZINC000462219577    0.3900
     50 H50         1.7662    3.6644   51.7471 H       1  ZINC000462219577    0.0800
     51 H51         0.6017    2.8751   52.8395 H       1  ZINC000462219577    0.0800
     52 H52         2.5093    1.3695   52.2627 H       1  ZINC000462219577    0.1000
     53 H53         0.9530    0.7219   51.6905 H       1  ZINC000462219577    0.0500
     54 H54         0.5354    0.0206   47.1717 H       1  ZINC000462219577    0.1300
     55 H55         1.5748   -0.0923   44.9424 H       1  ZINC000462219577    0.1200
     56 H56         3.4418    1.4103   44.3770 H       1  ZINC000462219577    0.1200
     57 H57         4.2688    3.0262   46.0407 H       1  ZINC000462219577    0.1200
     58 H58         3.2263    3.1422   48.2685 H       1  ZINC000462219577    0.1200
     59 H59        -0.2980    3.1205   48.6622 H       1  ZINC000462219577    0.0800
     60 H60         1.2300    3.8117   49.2622 H       1  ZINC000462219577    0.0900
     61 H61        -6.6387    3.3479   49.7581 H       1  ZINC000462219577    0.1500
@<TRIPOS>BOND
     1     1     2    1
     2     1    35    1
     3     1    36    1
     4     1    37    1
     5     2    34    1
     6     2     3    2
     7     3     4    1
     8     4     5    1
     9     4    11    1
    10     5    10   ar
    11     5     6   ar
    12     6     7   ar
    13     6    38    1
    14     7     8   ar
    15     7    39    1
    16     8     9   ar
    17     8    40    1
    18     9    10   ar
    19     9    41    1
    20    10    42    1
    21    11    12    1
    22    11    34    2
    23    12    13    1
    24    12    43    1
    25    12    44    1
    26    13    14    1
    27    13    15    1
    28    13    16    1
    29    15    45    1
    30    15    46    1
    31    15    47    1
    32    16    17   am
    33    16    48    1
    34    17    18    2
    35    17    19   am
    36    19    20    1
    37    19    49    1
    38    20    21    1
    39    20    33    1
    40    20    22    1
    41    22    23    1
    42    22    50    1
    43    22    51    1
    44    23    24    1
    45    23    52    1
    46    23    53    1
    47    24    25    1
    48    25    26    1
    49    25    27    1
    50    25    33    1
    51    27    32   ar
    52    27    28   ar
    53    28    29   ar
    54    28    54    1
    55    29    30   ar
    56    29    55    1
    57    30    31   ar
    58    30    56    1
    59    31    32   ar
    60    31    57    1
    61    32    58    1
    62    33    59    1
    63    33    60    1
    64    34    61    1
@<TRIPOS>SUBSTRUCTURE
     1 ZINC000462219577        1 TEMP              0 ****  ****    0 ROOT


##########                                Name:    ZINC000425987417
##########                DOCK_Rotatable_Bonds:                   9
##########                         Heavy_Atoms:                  25
##########                    Molecular_Weight:             357.419
##########                DOCK_Rotatable_Bonds:                   9
##########                       Formal_Charge:         -0.00999992
##########                     HBond_Acceptors:                   7
##########                        HBond_Donors:                   1
##########                         Heavy_Atoms:                  25
##########                          Grid_Score:          -30.144451
##########                     Grid_vdw_energy:          -30.648870
##########                      Grid_es_energy:            0.504420
##########           Internal_energy_repulsive:           10.815549

@<TRIPOS>MOLECULE
ZINC000425987417
 51 52 1 0 0
SMALL
USER_CHARGES


@<TRIPOS>ATOM
      1 C1        -11.7175   -0.8798   55.6425 C.3     1  ZINC000425987417   -0.1500
      2 C2        -11.3546    0.4879   56.2246 C.3     1  ZINC000425987417    0.0400
      3 N3         -9.9142    0.7238   56.0592 N.3     1  ZINC000425987417   -0.5300
      4 C4         -9.6634    1.7688   55.0576 C.3     1  ZINC000425987417    0.0400
      5 C5         -9.5889    1.1350   53.6671 C.3     1  ZINC000425987417    0.1400
      6 N6         -8.4690    1.7181   52.9240 N.am    1  ZINC000425987417   -0.7500
      7 C7         -7.9235    1.0467   51.8905 C.2     1  ZINC000425987417    0.7200
      8 O8         -8.3609   -0.0430   51.5749 O.2     1  ZINC000425987417   -0.5800
      9 N9         -6.8933    1.5832   51.2070 N.am    1  ZINC000425987417   -0.6200
     10 C10        -6.2753    0.8755   50.0734 C.3     1  ZINC000425987417    0.1300
     11 C11        -4.8305    0.5537   50.4520 C.3     1  ZINC000425987417   -0.1000
     12 C12        -4.1457    1.7637   51.0306 C.ar    1  ZINC000425987417   -0.0600
     13 C13        -2.7565    1.7806   51.0282 C.ar    1  ZINC000425987417   -0.1200
     14 C14        -2.0667    2.8544   51.5518 C.ar    1  ZINC000425987417   -0.1100
     15 C15        -2.7614    3.9237   52.0855 C.ar    1  ZINC000425987417   -0.1200
     16 C16        -4.1413    3.9111   52.0861 C.ar    1  ZINC000425987417   -0.1100
     17 C17        -4.8364    2.8339   51.5544 C.ar    1  ZINC000425987417   -0.0900
     18 C18        -6.3469    2.8982   51.5588 C.3     1  ZINC000425987417    0.1800
     19 H19        -6.6950    3.1817   52.5520 H       1  ZINC000425987417    0.0900
     20 C20        -6.8150    3.9384   50.5390 C.3     1  ZINC000425987417   -0.1600
     21 C21        -9.2855    1.0632   57.3428 C.3     1  ZINC000425987417    0.0500
     22 C22        -9.0204   -0.2183   58.1355 C.3     1  ZINC000425987417   -0.1600
     23 C23        -8.3071    0.1295   59.4436 C.3     1  ZINC000425987417    0.4500
     24 F24        -9.2024    0.7700   60.3070 F       1  ZINC000425987417   -0.1800
     25 F25        -7.8376   -1.0431   60.0449 F       1  ZINC000425987417   -0.1800
     26 F26        -7.2291    0.9798   59.1751 F       1  ZINC000425987417   -0.1900
     27 H27       -11.1945   -1.6602   56.1952 H       1  ZINC000425987417    0.0500
     28 H28       -12.7933   -1.0354   55.7240 H       1  ZINC000425987417    0.0600
     29 H29       -11.4233   -0.9179   54.5937 H       1  ZINC000425987417    0.0700
     30 H30       -11.9124    1.2649   55.7019 H       1  ZINC000425987417    0.0800
     31 H31       -11.6071    0.5101   57.2848 H       1  ZINC000425987417    0.0400
     32 H32       -10.4739    2.4972   55.0819 H       1  ZINC000425987417    0.0500
     33 H33        -8.7201    2.2672   55.2809 H       1  ZINC000425987417    0.0800
     34 H34        -9.4391    0.0598   53.7655 H       1  ZINC000425987417    0.0800
     35 H35       -10.5188    1.3248   53.1309 H       1  ZINC000425987417    0.0700
     36 H36        -8.1201    2.5874   53.1759 H       1  ZINC000425987417    0.3900
     37 H37        -6.8190   -0.0482   49.8748 H       1  ZINC000425987417    0.1000
     38 H38        -6.2918    1.5115   49.1884 H       1  ZINC000425987417    0.0700
     39 H39        -4.8233   -0.2491   51.1892 H       1  ZINC000425987417    0.0800
     40 H40        -4.2910    0.2275   49.5627 H       1  ZINC000425987417    0.0900
     41 H41        -2.2118    0.9455   50.6132 H       1  ZINC000425987417    0.1200
     42 H42        -0.9867    2.8595   51.5451 H       1  ZINC000425987417    0.1200
     43 H43        -2.2265    4.7651   52.5005 H       1  ZINC000425987417    0.1200
     44 H44        -4.6846    4.7460   52.5036 H       1  ZINC000425987417    0.1200
     45 H45        -6.4659    3.6562   49.5458 H       1  ZINC000425987417    0.0700
     46 H46        -7.9040    3.9852   50.5417 H       1  ZINC000425987417    0.0600
     47 H47        -6.4087    4.9147   50.8032 H       1  ZINC000425987417    0.0700
     48 H48        -8.3428    1.5792   57.1605 H       1  ZINC000425987417    0.0500
     49 H49        -9.9504    1.7121   57.9127 H       1  ZINC000425987417    0.0900
     50 H50        -9.9673   -0.7104   58.3578 H       1  ZINC000425987417    0.1200
     51 H51        -8.3930   -0.8868   57.5462 H       1  ZINC000425987417    0.1100
@<TRIPOS>BOND
     1     1     2    1
     2     1    27    1
     3     1    28    1
     4     1    29    1
     5     2     3    1
     6     2    30    1
     7     2    31    1
     8     3     4    1
     9     3    21    1
    10     4     5    1
    11     4    32    1
    12     4    33    1
    13     5     6    1
    14     5    34    1
    15     5    35    1
    16     6     7   am
    17     6    36    1
    18     7     8    2
    19     7     9   am
    20     9    18    1
    21     9    10    1
    22    10    11    1
    23    10    37    1
    24    10    38    1
    25    11    12    1
    26    11    39    1
    27    11    40    1
    28    12    17   ar
    29    12    13   ar
    30    13    14   ar
    31    13    41    1
    32    14    15   ar
    33    14    42    1
    34    15    16   ar
    35    15    43    1
    36    16    17   ar
    37    16    44    1
    38    17    18    1
    39    18    19    1
    40    18    20    1
    41    20    45    1
    42    20    46    1
    43    20    47    1
    44    21    22    1
    45    21    48    1
    46    21    49    1
    47    22    23    1
    48    22    50    1
    49    22    51    1
    50    23    24    1
    51    23    25    1
    52    23    26    1
@<TRIPOS>SUBSTRUCTURE
     1 ZINC000425987417        1 TEMP              0 ****  ****    0 ROOT


##########                                Name:    ZINC000195331548
##########                DOCK_Rotatable_Bonds:                   7
##########                         Heavy_Atoms:                  26
##########                    Molecular_Weight:             378.539
##########                DOCK_Rotatable_Bonds:                   7
##########                       Formal_Charge:          -0.0100004
##########                     HBond_Acceptors:                   7
##########                        HBond_Donors:                   2
##########                         Heavy_Atoms:                  26
##########                          Grid_Score:          -30.142687
##########                     Grid_vdw_energy:          -31.244907
##########                      Grid_es_energy:            1.102221
##########           Internal_energy_repulsive:           23.794350

@<TRIPOS>MOLECULE
ZINC000195331548
 56 58 1 0 0
SMALL
USER_CHARGES


@<TRIPOS>ATOM
      1 C1        -12.3217    0.2298   52.0024 C.3     1  ZINC000195331548   -0.0800
      2 C2        -11.2049    0.7352   52.8788 C.2     1  ZINC000195331548    0.0700
      3 C3        -11.2961    0.7819   54.2114 C.2     1  ZINC000195331548   -0.2600
      4 S4         -9.7796    1.4252   54.8365 S.3     1  ZINC000195331548    0.1100
      5 C5         -9.1768    1.5754   53.2436 C.2     1  ZINC000195331548    0.0600
      6 C6         -7.8114    2.1024   52.8841 C.3     1  ZINC000195331548   -0.0100
      7 H7         -7.1519    2.0255   53.7485 H       1  ZINC000195331548    0.1100
      8 C8         -7.9255    3.5683   52.4568 C.3     1  ZINC000195331548   -0.1200
      9 C9         -6.5442    4.0781   52.0362 C.3     1  ZINC000195331548   -0.1100
     10 C10        -6.0051    3.2007   50.9042 C.3     1  ZINC000195331548    0.0500
     11 N11        -5.9140    1.8087   51.3630 N.3     1  ZINC000195331548   -0.5200
     12 C12        -5.2711    0.9614   50.3497 C.3     1  ZINC000195331548    0.0400
     13 C13        -3.7865    1.2198   50.3475 C.2     1  ZINC000195331548    0.5100
     14 O14        -3.1483    1.0972   51.3709 O.2     1  ZINC000195331548   -0.4400
     15 N15        -3.1681    1.5872   49.2076 N.am    1  ZINC000195331548   -0.7000
     16 C16        -1.8406    1.8200   49.2059 C.2     1  ZINC000195331548    0.6900
     17 O17        -1.2013    1.6999   50.2326 O.2     1  ZINC000195331548   -0.5300
     18 N18        -1.2220    2.1858   48.0658 N.am    1  ZINC000195331548   -0.7300
     19 C19         0.2213    2.4371   48.0636 C.3     1  ZINC000195331548    0.1700
     20 H20         0.7239    1.6734   48.6572 H       1  ZINC000195331548    0.0900
     21 C21         0.4998    3.8159   48.6652 C.3     1  ZINC000195331548   -0.1300
     22 C22        -0.2057    4.8878   47.8321 C.3     1  ZINC000195331548   -0.1200
     23 C23         0.3175    4.8432   46.3950 C.3     1  ZINC000195331548   -0.1200
     24 C24         0.0390    3.4644   45.7934 C.3     1  ZINC000195331548   -0.1100
     25 C25         0.7446    2.3925   46.6266 C.3     1  ZINC000195331548   -0.1000
     26 H26         1.8184    2.5794   46.6249 H       1  ZINC000195331548    0.0900
     27 C27         0.4659    1.0135   46.0250 C.3     1  ZINC000195331548   -0.1500
     28 C28        -7.2355    1.2823   51.7275 C.3     1  ZINC000195331548    0.0600
     29 N29       -10.0581    1.1672   52.3941 N.2     1  ZINC000195331548   -0.4700
     30 H30       -12.2074   -0.8435   51.8509 H       1  ZINC000195331548    0.0800
     31 H31       -13.2795    0.4289   52.4833 H       1  ZINC000195331548    0.0800
     32 H32       -12.2862    0.7386   51.0390 H       1  ZINC000195331548    0.0800
     33 H33       -12.1475    0.4756   54.8010 H       1  ZINC000195331548    0.1800
     34 H34        -8.6154    3.6503   51.6169 H       1  ZINC000195331548    0.0600
     35 H35        -8.2956    4.1633   53.2917 H       1  ZINC000195331548    0.0700
     36 H36        -6.6264    5.1084   51.6905 H       1  ZINC000195331548    0.0800
     37 H37        -5.8647    4.0323   52.8873 H       1  ZINC000195331548    0.0800
     38 H38        -5.0155    3.5521   50.6120 H       1  ZINC000195331548    0.0800
     39 H39        -6.6778    3.2578   50.0485 H       1  ZINC000195331548    0.0400
     40 H40        -5.6819    1.1945   49.3673 H       1  ZINC000195331548    0.1200
     41 H41        -5.4570   -0.0873   50.5817 H       1  ZINC000195331548    0.0700
     42 H42        -3.6786    1.6842   48.3885 H       1  ZINC000195331548    0.4100
     43 H43        -1.7324    2.2827   47.2466 H       1  ZINC000195331548    0.4000
     44 H44         1.5737    4.0029   48.6636 H       1  ZINC000195331548    0.0700
     45 H45         0.1271    3.8477   49.6890 H       1  ZINC000195331548    0.0700
     46 H46        -0.0072    5.8703   48.2607 H       1  ZINC000195331548    0.0600
     47 H47        -1.2795    4.7010   47.8337 H       1  ZINC000195331548    0.0600
     48 H48        -0.1851    5.6069   45.8015 H       1  ZINC000195331548    0.0600
     49 H49         1.3914    5.0302   46.3934 H       1  ZINC000195331548    0.0600
     50 H50        -1.0349    3.2774   45.7951 H       1  ZINC000195331548    0.0600
     51 H51         0.4118    3.4325   44.7696 H       1  ZINC000195331548    0.0700
     52 H52        -0.6079    0.8266   46.0266 H       1  ZINC000195331548    0.0500
     53 H53         0.8388    0.9818   45.0012 H       1  ZINC000195331548    0.0600
     54 H54         0.9686    0.2499   46.6185 H       1  ZINC000195331548    0.0600
     55 H55        -7.9025    1.3484   50.8679 H       1  ZINC000195331548    0.0400
     56 H56        -7.1397    0.2404   52.0334 H       1  ZINC000195331548    0.0900
@<TRIPOS>BOND
     1     1     2    1
     2     1    30    1
     3     1    31    1
     4     1    32    1
     5     2    29    1
     6     2     3    2
     7     3     4    1
     8     3    33    1
     9     4     5    1
    10     5     6    1
    11     5    29    2
    12     6     7    1
    13     6    28    1
    14     6     8    1
    15     8     9    1
    16     8    34    1
    17     8    35    1
    18     9    10    1
    19     9    36    1
    20     9    37    1
    21    10    11    1
    22    10    38    1
    23    10    39    1
    24    11    12    1
    25    11    28    1
    26    12    13    1
    27    12    40    1
    28    12    41    1
    29    13    14    2
    30    13    15   am
    31    15    16   am
    32    15    42    1
    33    16    17    2
    34    16    18   am
    35    18    19    1
    36    18    43    1
    37    19    20    1
    38    19    25    1
    39    19    21    1
    40    21    22    1
    41    21    44    1
    42    21    45    1
    43    22    23    1
    44    22    46    1
    45    22    47    1
    46    23    24    1
    47    23    48    1
    48    23    49    1
    49    24    25    1
    50    24    50    1
    51    24    51    1
    52    25    26    1
    53    25    27    1
    54    27    52    1
    55    27    53    1
    56    27    54    1
    57    28    55    1
    58    28    56    1
@<TRIPOS>SUBSTRUCTURE
     1 ZINC000195331548        1 TEMP              0 ****  ****    0 ROOT


##########                                Name:    ZINC001625935330
##########                DOCK_Rotatable_Bonds:                   5
##########                         Heavy_Atoms:                  25
##########                    Molecular_Weight:             327.385
##########                DOCK_Rotatable_Bonds:                   5
##########                       Formal_Charge:           0.0199995
##########                     HBond_Acceptors:                   4
##########                        HBond_Donors:                   1
##########                         Heavy_Atoms:                  25
##########                          Grid_Score:          -30.138422
##########                     Grid_vdw_energy:          -29.157339
##########                      Grid_es_energy:           -0.981083
##########           Internal_energy_repulsive:            6.696263

@<TRIPOS>MOLECULE
ZINC001625935330
 42 44 1 0 0
SMALL
USER_CHARGES


@<TRIPOS>ATOM
      1 C1          0.4654    1.2965   50.0783 C.3     1  ZINC001625935330   -0.1600
      2 C2         -0.8387    1.3022   49.2781 C.3     1  ZINC001625935330    0.1800
      3 H3         -1.1954    0.2793   49.1575 H       1  ZINC001625935330    0.1000
      4 N4         -1.8466    2.0897   49.9925 N.am    1  ZINC001625935330   -0.7100
      5 C5         -3.0188    1.5248   50.3434 C.2     1  ZINC001625935330    0.5800
      6 O6         -3.2405    0.3627   50.0660 O.2     1  ZINC001625935330   -0.5300
      7 C7         -4.0374    2.3208   51.0675 C.ar    1  ZINC001625935330    0.0800
      8 C8         -5.1980    1.7039   51.5216 C.ar    1  ZINC001625935330   -0.1000
      9 C9         -6.1481    2.4695   52.2033 C.ar    1  ZINC001625935330    0.0000
     10 C10        -7.4014    1.8555   52.7069 C.ar    1  ZINC001625935330   -0.0600
     11 C11        -7.8708    2.1687   53.9810 C.ar    1  ZINC001625935330   -0.1000
     12 C12        -9.0375    1.5951   54.4441 C.ar    1  ZINC001625935330   -0.1200
     13 C13        -9.7406    0.7107   53.6461 C.ar    1  ZINC001625935330   -0.1100
     14 C14        -9.2793    0.3961   52.3804 C.ar    1  ZINC001625935330   -0.1200
     15 C15        -8.1167    0.9680   51.9052 C.ar    1  ZINC001625935330   -0.1000
     16 C16        -5.8866    3.8278   52.3982 C.ar    1  ZINC001625935330   -0.1400
     17 C17        -4.7066    4.3645   51.9144 C.ar    1  ZINC001625935330    0.1100
     18 N18        -3.8303    3.6151   51.2811 N.ar    1  ZINC001625935330   -0.4600
     19 C19        -0.5933    1.9120   47.9220 C.ar    1  ZINC001625935330   -0.0900
     20 C20        -0.5299    3.2870   47.7849 C.ar    1  ZINC001625935330   -0.0800
     21 C21        -0.3049    3.8553   46.5433 C.ar    1  ZINC001625935330   -0.1100
     22 C22        -0.1418    3.0530   45.4334 C.ar    1  ZINC001625935330   -0.0700
     23 C23        -0.2042    1.6640   45.5647 C.ar    1  ZINC001625935330   -0.0200
     24 C24        -0.0356    0.8247   44.4168 C.1     1  ZINC001625935330    0.2500
     25 N25         0.0981    0.1589   43.5060 N.1     1  ZINC001625935330   -0.4100
     26 C26        -0.4267    1.0972   46.8211 C.ar    1  ZINC001625935330   -0.0600
     27 H27         1.2152    0.7105   49.5469 H       1  ZINC001625935330    0.0700
     28 H28         0.8220    2.3193   50.1990 H       1  ZINC001625935330    0.0600
     29 H29         0.2878    0.8555   51.0592 H       1  ZINC001625935330    0.0700
     30 H30        -1.6701    3.0177   50.2130 H       1  ZINC001625935330    0.4100
     31 H31        -5.3627    0.6504   51.3501 H       1  ZINC001625935330    0.1500
     32 H32        -7.3224    2.8589   54.6050 H       1  ZINC001625935330    0.1300
     33 H33        -9.4020    1.8368   55.4316 H       1  ZINC001625935330    0.1300
     34 H34       -10.6530    0.2637   54.0126 H       1  ZINC001625935330    0.1300
     35 H35        -9.8321   -0.2952   51.7618 H       1  ZINC001625935330    0.1300
     36 H36        -7.7575    0.7220   50.9168 H       1  ZINC001625935330    0.1300
     37 H37        -6.5971    4.4516   52.9200 H       1  ZINC001625935330    0.1400
     38 H38        -4.5001    5.4142   52.0624 H       1  ZINC001625935330    0.1700
     39 H39        -0.6570    3.9199   48.6507 H       1  ZINC001625935330    0.1300
     40 H40        -0.2573    4.9296   46.4432 H       1  ZINC001625935330    0.1400
     41 H41         0.0333    3.4977   44.4650 H       1  ZINC001625935330    0.1400
     42 H42        -0.4760    0.0238   46.9296 H       1  ZINC001625935330    0.1400
@<TRIPOS>BOND
     1     1     2    1
     2     1    27    1
     3     1    28    1
     4     1    29    1
     5     2     3    1
     6     2     4    1
     7     2    19    1
     8     4     5   am
     9     4    30    1
    10     5     6    2
    11     5     7    1
    12     7    18   ar
    13     7     8   ar
    14     8     9   ar
    15     8    31    1
    16     9    10    1
    17     9    16   ar
    18    10    15   ar
    19    10    11   ar
    20    11    12   ar
    21    11    32    1
    22    12    13   ar
    23    12    33    1
    24    13    14   ar
    25    13    34    1
    26    14    15   ar
    27    14    35    1
    28    15    36    1
    29    16    17   ar
    30    16    37    1
    31    17    18   ar
    32    17    38    1
    33    19    26   ar
    34    19    20   ar
    35    20    21   ar
    36    20    39    1
    37    21    22   ar
    38    21    40    1
    39    22    23   ar
    40    22    41    1
    41    23    24    1
    42    23    26   ar
    43    24    25    3
    44    26    42    1
@<TRIPOS>SUBSTRUCTURE
     1 ZINC001625935330        1 TEMP              0 ****  ****    0 ROOT


##########                                Name:    ZINC000430767928
##########                DOCK_Rotatable_Bonds:                   4
##########                         Heavy_Atoms:                  25
##########                    Molecular_Weight:             358.505
##########                DOCK_Rotatable_Bonds:                   4
##########                       Formal_Charge:          -0.0100002
##########                     HBond_Acceptors:                   5
##########                        HBond_Donors:                   0
##########                         Heavy_Atoms:                  25
##########                          Grid_Score:          -30.138023
##########                     Grid_vdw_energy:          -29.392992
##########                      Grid_es_energy:           -0.745031
##########           Internal_energy_repulsive:           21.343536

@<TRIPOS>MOLECULE
ZINC000430767928
 51 55 1 0 0
SMALL
USER_CHARGES


@<TRIPOS>ATOM
      1 O1         -3.8028    4.5276   52.0388 O.2     1  ZINC000430767928   -0.4600
      2 C2         -3.6664    3.3794   51.6744 C.2     1  ZINC000430767928    0.5300
      3 C3         -2.3710    2.6417   51.4352 C.3     1  ZINC000430767928    0.0400
      4 H4         -1.8410    2.4080   52.3586 H       1  ZINC000430767928    0.1400
      5 C5         -1.4850    3.3720   50.4050 C.3     1  ZINC000430767928   -0.1100
      6 C6         -0.7418    2.1990   49.7160 C.3     1  ZINC000430767928   -0.1000
      7 H7          0.2415    2.0574   50.1645 H       1  ZINC000430767928    0.1000
      8 C8         -0.6077    2.4626   48.2148 C.3     1  ZINC000430767928   -0.0800
      9 C9          0.1115    3.7947   47.9930 C.3     1  ZINC000430767928   -0.1100
     10 C10         0.2455    4.0582   46.4918 C.3     1  ZINC000430767928   -0.1200
     11 C11         1.0517    2.9296   45.8458 C.3     1  ZINC000430767928   -0.1200
     12 C12         0.3325    1.5975   46.0676 C.3     1  ZINC000430767928   -0.1200
     13 C13         0.1985    1.3340   47.5689 C.3     1  ZINC000430767928   -0.1200
     14 C14        -1.6311    0.9624   49.9693 C.3     1  ZINC000430767928    0.1600
     15 N15        -2.8235    1.4301   50.6957 N.am    1  ZINC000430767928   -0.6400
     16 C16        -4.1283    1.3141   50.9624 C.2     1  ZINC000430767928    0.7400
     17 O17        -4.7688    0.2923   50.8110 O.2     1  ZINC000430767928   -0.5100
     18 N18        -4.6415    2.4844   51.4009 N.am    1  ZINC000430767928   -0.5800
     19 C19        -6.0735    2.7533   51.5536 C.3     1  ZINC000430767928    0.2600
     20 H20        -6.6455    1.9614   51.0699 H       1  ZINC000430767928    0.1200
     21 C21        -6.4222    2.8017   53.0188 C.2     1  ZINC000430767928   -0.2100
     22 C22        -7.5375    2.3100   53.5605 C.2     1  ZINC000430767928   -0.1200
     23 C23        -7.6398    2.4703   54.9317 C.2     1  ZINC000430767928   -0.1400
     24 C24        -6.6076    3.0925   55.5033 C.2     1  ZINC000430767928   -0.2300
     25 S25        -5.4172    3.5088   54.2773 S.3     1  ZINC000430767928    0.1700
     26 C26        -6.4122    4.0965   50.9040 C.3     1  ZINC000430767928   -0.1700
     27 C27        -7.1013    4.0670   49.5382 C.3     1  ZINC000430767928   -0.1700
     28 C28        -7.8910    4.4707   50.7850 C.3     1  ZINC000430767928   -0.1600
     29 H29        -2.0960    3.9189   49.6870 H       1  ZINC000430767928    0.0800
     30 H30        -0.7804    4.0382   50.9029 H       1  ZINC000430767928    0.1000
     31 H31        -1.5990    2.5053   47.7634 H       1  ZINC000430767928    0.0700
     32 H32        -0.4629    4.5987   48.4532 H       1  ZINC000430767928    0.0600
     33 H33         1.1027    3.7519   48.4443 H       1  ZINC000430767928    0.0700
     34 H34        -0.7458    4.1009   46.0405 H       1  ZINC000430767928    0.0600
     35 H35         0.7578    5.0072   46.3338 H       1  ZINC000430767928    0.0600
     36 H36         1.1471    3.1173   44.7765 H       1  ZINC000430767928    0.0600
     37 H37         2.0429    2.8868   46.2972 H       1  ZINC000430767928    0.0600
     38 H38        -0.6588    1.6402   45.6164 H       1  ZINC000430767928    0.0600
     39 H39         0.9068    0.7934   45.6075 H       1  ZINC000430767928    0.0600
     40 H40         1.1897    1.2912   48.0202 H       1  ZINC000430767928    0.0700
     41 H41        -0.3140    0.3850   47.7268 H       1  ZINC000430767928    0.0600
     42 H42        -1.9190    0.5091   49.0208 H       1  ZINC000430767928    0.0900
     43 H43        -1.0962    0.2375   50.5828 H       1  ZINC000430767928    0.0800
     44 H44        -8.3028    1.8236   52.9739 H       1  ZINC000430767928    0.1400
     45 H45        -8.4911    2.1188   55.4956 H       1  ZINC000430767928    0.1400
     46 H46        -6.5154    3.3050   56.5582 H       1  ZINC000430767928    0.1600
     47 H47        -5.7028    4.9023   51.0929 H       1  ZINC000430767928    0.1200
     48 H48        -6.8452    4.8533   48.8282 H       1  ZINC000430767928    0.1000
     49 H49        -7.3133    3.0907   49.1025 H       1  ZINC000430767928    0.1000
     50 H50        -8.6226    3.7599   51.1694 H       1  ZINC000430767928    0.1000
     51 H51        -8.1544    5.5227   50.8951 H       1  ZINC000430767928    0.1000
@<TRIPOS>BOND
     1     1     2    2
     2     2    18   am
     3     2     3    1
     4     3     4    1
     5     3    15    1
     6     3     5    1
     7     5     6    1
     8     5    29    1
     9     5    30    1
    10     6     7    1
    11     6     8    1
    12     6    14    1
    13     8    13    1
    14     8     9    1
    15     8    31    1
    16     9    10    1
    17     9    32    1
    18     9    33    1
    19    10    11    1
    20    10    34    1
    21    10    35    1
    22    11    12    1
    23    11    36    1
    24    11    37    1
    25    12    13    1
    26    12    38    1
    27    12    39    1
    28    13    40    1
    29    13    41    1
    30    14    15    1
    31    14    42    1
    32    14    43    1
    33    15    16   am
    34    16    17    2
    35    16    18   am
    36    18    19    1
    37    19    20    1
    38    19    21    1
    39    19    26    1
    40    21    25    1
    41    21    22    2
    42    22    23    1
    43    22    44    1
    44    23    24    2
    45    23    45    1
    46    24    25    1
    47    24    46    1
    48    26    28    1
    49    26    27    1
    50    26    47    1
    51    27    28    1
    52    27    48    1
    53    27    49    1
    54    28    50    1
    55    28    51    1
@<TRIPOS>SUBSTRUCTURE
     1 ZINC000430767928        1 TEMP              0 ****  ****    0 ROOT


##########                                Name:    ZINC000151850193
##########                DOCK_Rotatable_Bonds:                  11
##########                         Heavy_Atoms:                  23
##########                    Molecular_Weight:             328.452
##########                DOCK_Rotatable_Bonds:                  11
##########                       Formal_Charge:            0.039999
##########                     HBond_Acceptors:                   6
##########                        HBond_Donors:                   2
##########                         Heavy_Atoms:                  23
##########                          Grid_Score:          -30.133825
##########                     Grid_vdw_energy:          -29.193596
##########                      Grid_es_energy:           -0.940230
##########           Internal_energy_repulsive:           47.604687

@<TRIPOS>MOLECULE
ZINC000151850193
 55 55 1 0 0
SMALL
USER_CHARGES


@<TRIPOS>ATOM
      1 C1          2.0574    2.2985   42.9887 C.3     1  ZINC000151850193   -0.1500
      2 C2          2.2816    2.1137   44.4909 C.3     1  ZINC000151850193   -0.1000
      3 C3          1.2197    2.8972   45.2652 C.3     1  ZINC000151850193   -0.0800
      4 C4         -0.2072    2.5374   44.8464 C.3     1  ZINC000151850193   -0.1000
      5 C5         -0.4081    1.0254   44.9668 C.3     1  ZINC000151850193   -0.1500
      6 C6          1.4371    2.8904   46.7875 C.3     1  ZINC000151850193    0.1400
      7 H7          1.9995    2.0275   47.1444 H       1  ZINC000151850193    0.1000
      8 N8          0.2131    3.1293   47.5562 N.am    1  ZINC000151850193   -0.7000
      9 C9         -0.1210    2.3014   48.5659 C.2     1  ZINC000151850193    0.5200
     10 O10         0.5910    1.3577   48.8371 O.2     1  ZINC000151850193   -0.5300
     11 C11        -1.3792    2.5482   49.3578 C.3     1  ZINC000151850193   -0.1500
     12 C12        -1.4911    1.5086   50.4746 C.3     1  ZINC000151850193    0.1500
     13 N13        -2.6206    1.8459   51.3445 N.am    1  ZINC000151850193   -0.7100
     14 C14        -3.8723    1.4926   50.9910 C.2     1  ZINC000151850193    0.6500
     15 O15        -4.0641    0.8957   49.9503 O.2     1  ZINC000151850193   -0.5600
     16 O16        -4.9102    1.8013   51.7912 O.3     1  ZINC000151850193   -0.3700
     17 C17        -6.2277    1.8268   51.1816 C.3     1  ZINC000151850193    0.1400
     18 C18        -6.1997    2.7260   49.9440 C.3     1  ZINC000151850193   -0.1800
     19 C19        -6.6277    0.4080   50.7719 C.3     1  ZINC000151850193   -0.1400
     20 C20        -7.2441    2.3733   52.1862 C.3     1  ZINC000151850193   -0.1800
     21 C21         2.2989    4.1488   46.5910 C.3     1  ZINC000151850193   -0.1700
     22 C22         1.4844    4.4113   45.3133 C.3     1  ZINC000151850193    0.0700
     23 H23         2.0849    4.7763   44.4799 H       1  ZINC000151850193    0.0800
     24 O24         0.3087    5.1930   45.5343 O.3     1  ZINC000151850193   -0.3700
     25 C25         0.4796    6.5871   45.2709 C.3     1  ZINC000151850193    0.0300
     26 H26         1.0800    1.9007   42.7155 H       1  ZINC000151850193    0.0600
     27 H27         2.0994    3.3596   42.7429 H       1  ZINC000151850193    0.0600
     28 H28         2.8331    1.7668   42.4375 H       1  ZINC000151850193    0.0600
     29 H29         2.2074    1.0555   44.7419 H       1  ZINC000151850193    0.0700
     30 H30         3.2719    2.4820   44.7585 H       1  ZINC000151850193    0.0700
     31 H31        -0.9167    3.0510   45.4951 H       1  ZINC000151850193    0.0700
     32 H32        -0.3710    2.8445   43.8135 H       1  ZINC000151850193    0.0700
     33 H33         0.2508    0.5143   44.2648 H       1  ZINC000151850193    0.0500
     34 H34        -0.1733    0.7075   45.9827 H       1  ZINC000151850193    0.0500
     35 H35        -1.4446    0.7773   44.7388 H       1  ZINC000151850193    0.0500
     36 H36        -0.3568    3.8834   47.3385 H       1  ZINC000151850193    0.4100
     37 H37        -1.3443    3.5469   49.7932 H       1  ZINC000151850193    0.1000
     38 H38        -2.2443    2.4689   48.6995 H       1  ZINC000151850193    0.1000
     39 H39        -1.6502    0.5224   50.0384 H       1  ZINC000151850193    0.0800
     40 H40        -0.5712    1.5030   51.0594 H       1  ZINC000151850193    0.0800
     41 H41        -2.4676    2.3236   52.1747 H       1  ZINC000151850193    0.4100
     42 H42        -5.4756    2.3367   49.2283 H       1  ZINC000151850193    0.0600
     43 H43        -7.1887    2.7452   49.4864 H       1  ZINC000151850193    0.0700
     44 H44        -5.9147    3.7369   50.2358 H       1  ZINC000151850193    0.0900
     45 H45        -6.6476   -0.2327   51.6536 H       1  ZINC000151850193    0.0700
     46 H46        -7.6167    0.4270   50.3143 H       1  ZINC000151850193    0.0800
     47 H47        -5.9036    0.0186   50.0563 H       1  ZINC000151850193    0.0700
     48 H48        -6.9591    3.3840   52.4780 H       1  ZINC000151850193    0.0900
     49 H49        -8.2332    2.3924   51.7285 H       1  ZINC000151850193    0.0700
     50 H50        -7.2640    1.7326   53.0678 H       1  ZINC000151850193    0.0600
     51 H51         2.1531    4.9030   47.3643 H       1  ZINC000151850193    0.0800
     52 H52         3.3504    3.9328   46.4018 H       1  ZINC000151850193    0.1000
     53 H53         1.2584    6.9868   45.9203 H       1  ZINC000151850193    0.0400
     54 H54         0.7679    6.7274   44.2291 H       1  ZINC000151850193    0.0400
     55 H55        -0.4571    7.1105   45.4623 H       1  ZINC000151850193    0.0900
@<TRIPOS>BOND
     1     1     2    1
     2     1    26    1
     3     1    27    1
     4     1    28    1
     5     2     3    1
     6     2    29    1
     7     2    30    1
     8     3    22    1
     9     3     4    1
    10     3     6    1
    11     4     5    1
    12     4    31    1
    13     4    32    1
    14     5    33    1
    15     5    34    1
    16     5    35    1
    17     6     7    1
    18     6     8    1
    19     6    21    1
    20     8     9   am
    21     8    36    1
    22     9    10    2
    23     9    11    1
    24    11    12    1
    25    11    37    1
    26    11    38    1
    27    12    13    1
    28    12    39    1
    29    12    40    1
    30    13    14   am
    31    13    41    1
    32    14    15    2
    33    14    16    1
    34    16    17    1
    35    17    18    1
    36    17    19    1
    37    17    20    1
    38    18    42    1
    39    18    43    1
    40    18    44    1
    41    19    45    1
    42    19    46    1
    43    19    47    1
    44    20    48    1
    45    20    49    1
    46    20    50    1
    47    21    22    1
    48    21    51    1
    49    21    52    1
    50    22    23    1
    51    22    24    1
    52    24    25    1
    53    25    53    1
    54    25    54    1
    55    25    55    1
@<TRIPOS>SUBSTRUCTURE
     1 ZINC000151850193        1 TEMP              0 ****  ****    0 ROOT


##########                                Name:    ZINC000194290865
##########                DOCK_Rotatable_Bonds:                   7
##########                         Heavy_Atoms:                  28
##########                    Molecular_Weight:             387.479
##########                DOCK_Rotatable_Bonds:                   7
##########                       Formal_Charge:          -0.0400003
##########                     HBond_Acceptors:                   7
##########                        HBond_Donors:                   0
##########                         Heavy_Atoms:                  28
##########                          Grid_Score:          -30.121908
##########                     Grid_vdw_energy:          -28.983578
##########                      Grid_es_energy:           -1.138331
##########           Internal_energy_repulsive:           37.630322

@<TRIPOS>MOLECULE
ZINC000194290865
 57 59 1 0 0
SMALL
USER_CHARGES


@<TRIPOS>ATOM
      1 C1          0.8864    1.6018   58.7395 C.3     1  ZINC000194290865   -0.1500
      2 C2          1.2846    2.5486   57.6057 C.3     1  ZINC000194290865    0.0600
      3 O3          0.1080    2.8951   56.8287 O.3     1  ZINC000194290865   -0.3600
      4 C4          0.2813    3.7506   55.8090 C.2     1  ZINC000194290865    0.4700
      5 O5          1.3866    4.1629   55.5474 O.2     1  ZINC000194290865   -0.4900
      6 C6         -0.9026    4.1971   54.9904 C.3     1  ZINC000194290865   -0.0600
      7 C7         -2.2044    3.9187   55.7444 C.3     1  ZINC000194290865   -0.0700
      8 C8         -2.2601    4.7860   57.0036 C.3     1  ZINC000194290865   -0.1700
      9 C9         -3.3962    4.2497   54.8440 C.3     1  ZINC000194290865   -0.1600
     10 C10        -0.7858    5.7016   54.6533 C.3     1  ZINC000194290865   -0.1200
     11 C11        -0.1784    5.6888   53.2280 C.3     1  ZINC000194290865    0.0900
     12 N12        -0.8367    4.5262   52.5885 N.am    1  ZINC000194290865   -0.6100
     13 C13        -1.2771    4.4403   51.3177 C.2     1  ZINC000194290865    0.5800
     14 O14        -1.1492    5.3859   50.5650 O.2     1  ZINC000194290865   -0.5000
     15 C15        -1.9165    3.1944   50.8387 C.ar    1  ZINC000194290865    0.0100
     16 C16        -1.1788    2.2212   50.1376 C.ar    1  ZINC000194290865   -0.2200
     17 C17        -1.8248    1.0520   49.7002 C.ar    1  ZINC000194290865    0.3000
     18 N18        -3.1133    0.8742   49.9482 N.ar    1  ZINC000194290865   -0.4700
     19 C19        -3.8279    1.7659   50.6009 C.ar    1  ZINC000194290865    0.2100
     20 C20        -5.2900    1.4972   50.8481 C.3     1  ZINC000194290865   -0.1100
     21 C21        -3.2684    2.9427   51.0718 C.ar    1  ZINC000194290865   -0.1800
     22 O22        -0.8970    0.3064   49.0667 O.3     1  ZINC000194290865   -0.0800
     23 N23         0.3443    0.9816   49.0895 N.2     1  ZINC000194290865   -0.2600
     24 C24         0.2162    2.1134   49.7123 C.2     1  ZINC000194290865    0.1600
     25 C25         1.3038    3.1286   49.9521 C.3     1  ZINC000194290865   -0.0400
     26 C26         2.4714    2.4623   50.6825 C.3     1  ZINC000194290865   -0.1500
     27 C27         1.7901    3.6816   48.6110 C.3     1  ZINC000194290865   -0.1400
     28 C28        -0.9106    3.4813   53.6268 C.3     1  ZINC000194290865    0.1200
     29 H29         0.1572    2.0929   59.3838 H       1  ZINC000194290865    0.0700
     30 H30         0.4486    0.6961   58.3197 H       1  ZINC000194290865    0.0700
     31 H31         1.7698    1.3416   59.3228 H       1  ZINC000194290865    0.0800
     32 H32         1.7225    3.4543   58.0255 H       1  ZINC000194290865    0.0700
     33 H33         2.0138    2.0574   56.9614 H       1  ZINC000194290865    0.0700
     34 H34        -2.2432    2.8664   56.0261 H       1  ZINC000194290865    0.0900
     35 H35        -1.4111    4.5502   57.6451 H       1  ZINC000194290865    0.0500
     36 H36        -2.2213    5.8383   56.7218 H       1  ZINC000194290865    0.0800
     37 H37        -3.1875    4.5877   57.5408 H       1  ZINC000194290865    0.0600
     38 H38        -3.3566    3.6318   53.9469 H       1  ZINC000194290865    0.0500
     39 H39        -4.3237    4.0513   55.3811 H       1  ZINC000194290865    0.0600
     40 H40        -3.3575    5.3020   54.5622 H       1  ZINC000194290865    0.0800
     41 H41        -1.7682    6.1738   54.6500 H       1  ZINC000194290865    0.0900
     42 H42        -0.1176    6.2031   55.3532 H       1  ZINC000194290865    0.0900
     43 H43        -0.4228    6.6091   52.6974 H       1  ZINC000194290865    0.0900
     44 H44         0.9011    5.5439   53.2712 H       1  ZINC000194290865    0.0900
     45 H45        -5.4076    0.9710   51.7954 H       1  ZINC000194290865    0.0900
     46 H46        -5.8314    2.4424   50.8879 H       1  ZINC000194290865    0.0900
     47 H47        -5.6884    0.8839   50.0399 H       1  ZINC000194290865    0.0900
     48 H48        -3.8738    3.6604   51.6054 H       1  ZINC000194290865    0.1600
     49 H49         0.9122    3.9437   50.5607 H       1  ZINC000194290865    0.1100
     50 H50         2.8631    1.6472   50.0740 H       1  ZINC000194290865    0.0700
     51 H51         3.2581    3.1966   50.8560 H       1  ZINC000194290865    0.0700
     52 H52         2.1251    2.0683   51.6380 H       1  ZINC000194290865    0.0600
     53 H53         0.9582    4.1564   48.0906 H       1  ZINC000194290865    0.0600
     54 H54         2.5766    4.4159   48.7845 H       1  ZINC000194290865    0.0700
     55 H55         2.1816    2.8666   48.0024 H       1  ZINC000194290865    0.0600
     56 H56        -0.0479    2.8197   53.5498 H       1  ZINC000194290865    0.0800
     57 H57        -1.8316    2.9095   53.5130 H       1  ZINC000194290865    0.1000
@<TRIPOS>BOND
     1     1     2    1
     2     1    29    1
     3     1    30    1
     4     1    31    1
     5     2     3    1
     6     2    32    1
     7     2    33    1
     8     3     4    1
     9     4     5    2
    10     4     6    1
    11     6    28    1
    12     6     7    1
    13     6    10    1
    14     7     8    1
    15     7     9    1
    16     7    34    1
    17     8    35    1
    18     8    36    1
    19     8    37    1
    20     9    38    1
    21     9    39    1
    22     9    40    1
    23    10    11    1
    24    10    41    1
    25    10    42    1
    26    11    12    1
    27    11    43    1
    28    11    44    1
    29    12    13   am
    30    12    28    1
    31    13    14    2
    32    13    15    1
    33    15    21   ar
    34    15    16   ar
    35    16    24    1
    36    16    17   ar
    37    17    18   ar
    38    17    22    1
    39    18    19   ar
    40    19    20    1
    41    19    21   ar
    42    20    45    1
    43    20    46    1
    44    20    47    1
    45    21    48    1
    46    22    23    1
    47    23    24    2
    48    24    25    1
    49    25    26    1
    50    25    27    1
    51    25    49    1
    52    26    50    1
    53    26    51    1
    54    26    52    1
    55    27    53    1
    56    27    54    1
    57    27    55    1
    58    28    56    1
    59    28    57    1
@<TRIPOS>SUBSTRUCTURE
     1 ZINC000194290865        1 TEMP              0 ****  ****    0 ROOT


##########                                Name:    ZINC001344051361
##########                DOCK_Rotatable_Bonds:                   8
##########                         Heavy_Atoms:                  28
##########                    Molecular_Weight:             379.456
##########                DOCK_Rotatable_Bonds:                   8
##########                       Formal_Charge:          -0.0100006
##########                     HBond_Acceptors:                   5
##########                        HBond_Donors:                   0
##########                         Heavy_Atoms:                  28
##########                          Grid_Score:          -30.109619
##########                     Grid_vdw_energy:          -30.473782
##########                      Grid_es_energy:            0.364163
##########           Internal_energy_repulsive:           23.532936

@<TRIPOS>MOLECULE
ZINC001344051361
 53 56 1 0 0
SMALL
USER_CHARGES


@<TRIPOS>ATOM
      1 O1         -4.2963    0.5606   49.8732 O.2     1  ZINC001344051361   -0.4800
      2 C2         -4.4803    1.4760   50.6400 C.2     1  ZINC001344051361    0.4800
      3 O3         -3.5064    2.3730   50.8605 O.3     1  ZINC001344051361   -0.3500
      4 C4         -2.1510    1.8624   50.9633 C.3     1  ZINC001344051361    0.0700
      5 C5         -1.2939    2.4625   49.8468 C.3     1  ZINC001344051361   -0.1000
      6 H6         -1.6903    3.4391   49.5689 H       1  ZINC001344051361    0.0900
      7 C7          0.1477    2.6170   50.3366 C.3     1  ZINC001344051361   -0.1200
      8 C8          0.9987    3.2475   49.2319 C.3     1  ZINC001344051361   -0.1300
      9 C9          1.0002    2.3282   48.0065 C.3     1  ZINC001344051361    0.0800
     10 N10        -0.3903    2.0574   47.6167 N.am    1  ZINC001344051361   -0.6100
     11 C11        -0.8063    2.2841   46.3550 C.2     1  ZINC001344051361    0.5600
     12 O12        -1.9594    2.0561   46.0451 O.2     1  ZINC001344051361   -0.5300
     13 C13         0.1396    2.8103   45.3479 C.ar    1  ZINC001344051361   -0.1300
     14 C14         0.7431    1.9453   44.4338 C.ar    1  ZINC001344051361   -0.1000
     15 C15         1.6245    2.4428   43.4964 C.ar    1  ZINC001344051361   -0.1300
     16 C16         1.9111    3.7959   43.4615 C.ar    1  ZINC001344051361   -0.0900
     17 C17         1.3167    4.6588   44.3650 C.ar    1  ZINC001344051361   -0.1300
     18 C18         0.4286    4.1751   45.3035 C.ar    1  ZINC001344051361   -0.0600
     19 C19        -1.3191    1.5347   48.6281 C.3     1  ZINC001344051361    0.1200
     20 C20        -5.8054    1.6142   51.3442 C.3     1  ZINC001344051361    0.0200
     21 O21        -5.7397    2.0682   52.6977 O.3     1  ZINC001344051361   -0.2500
     22 C22        -5.5753    3.4029   52.8934 C.ar    1  ZINC001344051361    0.1200
     23 C23        -5.4898    3.9109   54.1816 C.ar    1  ZINC001344051361   -0.2000
     24 C24        -5.3221    5.2681   54.3779 C.ar    1  ZINC001344051361   -0.0800
     25 C25        -5.2398    6.1199   53.2919 C.ar    1  ZINC001344051361   -0.1500
     26 C26        -5.3250    5.6161   52.0071 C.ar    1  ZINC001344051361   -0.0800
     27 C27        -5.4865    4.2590   51.8053 C.ar    1  ZINC001344051361   -0.1400
     28 C28        -7.0072    2.0575   50.5076 C.3     1  ZINC001344051361   -0.1700
     29 C29        -6.9026    0.6089   50.9889 C.3     1  ZINC001344051361   -0.1100
     30 H30        -1.7315    2.1374   51.9310 H       1  ZINC001344051361    0.0800
     31 H31        -2.1635    0.7767   50.8680 H       1  ZINC001344051361    0.0800
     32 H32         0.1650    3.2574   51.2185 H       1  ZINC001344051361    0.0700
     33 H33         0.5516    1.6373   50.5916 H       1  ZINC001344051361    0.0700
     34 H34         0.5809    4.2166   48.9591 H       1  ZINC001344051361    0.0700
     35 H35         2.0200    3.3787   49.5895 H       1  ZINC001344051361    0.0800
     36 H36         1.5218    2.8170   47.1836 H       1  ZINC001344051361    0.1100
     37 H37         1.4996    1.3913   48.2532 H       1  ZINC001344051361    0.0700
     38 H38         0.5208    0.8888   44.4606 H       1  ZINC001344051361    0.1400
     39 H39         2.0922    1.7746   42.7884 H       1  ZINC001344051361    0.1300
     40 H40         2.6021    4.1803   42.7258 H       1  ZINC001344051361    0.1300
     41 H41         1.5449    5.7139   44.3326 H       1  ZINC001344051361    0.1300
     42 H42        -0.0349    4.8497   46.0081 H       1  ZINC001344051361    0.1300
     43 H43        -1.0091    0.5330   48.9259 H       1  ZINC001344051361    0.0700
     44 H44        -2.3273    1.4998   48.2151 H       1  ZINC001344051361    0.1000
     45 H45        -5.5548    3.2460   55.0301 H       1  ZINC001344051361    0.1300
     46 H46        -5.2556    5.6641   55.3805 H       1  ZINC001344051361    0.1300
     47 H47        -5.1090    7.1807   53.4475 H       1  ZINC001344051361    0.1300
     48 H48        -5.2608    6.2836   51.1605 H       1  ZINC001344051361    0.1300
     49 H49        -5.5531    3.8660   50.8016 H       1  ZINC001344051361    0.1300
     50 H50        -7.7481    2.6956   50.9893 H       1  ZINC001344051361    0.1200
     51 H51        -6.8394    2.2490   49.4477 H       1  ZINC001344051361    0.1200
     52 H52        -6.6661   -0.1525   50.2457 H       1  ZINC001344051361    0.1200
     53 H53        -7.5747    0.2941   51.7873 H       1  ZINC001344051361    0.1200
@<TRIPOS>BOND
     1     1     2    2
     2     2     3    1
     3     2    20    1
     4     3     4    1
     5     4     5    1
     6     4    30    1
     7     4    31    1
     8     5     6    1
     9     5    19    1
    10     5     7    1
    11     7     8    1
    12     7    32    1
    13     7    33    1
    14     8     9    1
    15     8    34    1
    16     8    35    1
    17     9    10    1
    18     9    36    1
    19     9    37    1
    20    10    11   am
    21    10    19    1
    22    11    12    2
    23    11    13    1
    24    13    18   ar
    25    13    14   ar
    26    14    15   ar
    27    14    38    1
    28    15    16   ar
    29    15    39    1
    30    16    17   ar
    31    16    40    1
    32    17    18   ar
    33    17    41    1
    34    18    42    1
    35    19    43    1
    36    19    44    1
    37    20    29    1
    38    20    21    1
    39    20    28    1
    40    21    22    1
    41    22    27   ar
    42    22    23   ar
    43    23    24   ar
    44    23    45    1
    45    24    25   ar
    46    24    46    1
    47    25    26   ar
    48    25    47    1
    49    26    27   ar
    50    26    48    1
    51    27    49    1
    52    28    29    1
    53    28    50    1
    54    28    51    1
    55    29    52    1
    56    29    53    1
@<TRIPOS>SUBSTRUCTURE
     1 ZINC001344051361        1 TEMP              0 ****  ****    0 ROOT


##########                                Name:    ZINC001109404798
##########                DOCK_Rotatable_Bonds:                   7
##########                         Heavy_Atoms:                  25
##########                    Molecular_Weight:              360.48
##########                DOCK_Rotatable_Bonds:                   7
##########                       Formal_Charge:           0.0100002
##########                     HBond_Acceptors:                   7
##########                        HBond_Donors:                   1
##########                         Heavy_Atoms:                  25
##########                          Grid_Score:          -30.107977
##########                     Grid_vdw_energy:          -28.297308
##########                      Grid_es_energy:           -1.810668
##########           Internal_energy_repulsive:           26.874287

@<TRIPOS>MOLECULE
ZINC001109404798
 49 52 1 0 0
SMALL
USER_CHARGES


@<TRIPOS>ATOM
      1 C1          4.2450    1.1143   45.4149 C.3     1  ZINC001109404798   -0.0600
      2 C2          3.9053    1.6724   46.7729 C.2     1  ZINC001109404798    0.1700
      3 N3          4.5302    2.6309   47.3888 N.2     1  ZINC001109404798   -0.3900
      4 O4          4.0116    2.8478   48.4636 O.3     1  ZINC001109404798    0.1000
      5 C5          2.9751    2.0231   48.6410 C.2     1  ZINC001109404798    0.1900
      6 C6          2.0671    1.9682   49.8425 C.3     1  ZINC001109404798    0.1600
      7 H7          1.9484    2.9703   50.2544 H       1  ZINC001109404798    0.1000
      8 C8          2.6791    1.0502   50.9027 C.3     1  ZINC001109404798   -0.1500
      9 N9          0.7544    1.4452   49.4407 N.3     1  ZINC001109404798   -0.4800
     10 C10         0.0659    2.3883   48.4888 C.3     1  ZINC001109404798    0.0400
     11 H11         0.5643    2.5467   47.5324 H       1  ZINC001109404798    0.1100
     12 C12        -0.0903    3.6543   49.3842 C.3     1  ZINC001109404798   -0.1600
     13 C13        -0.2924    3.0707   50.8041 C.3     1  ZINC001109404798   -0.1600
     14 C14        -0.2313    1.5300   50.5769 C.3     1  ZINC001109404798    0.0400
     15 H15         0.0056    0.9334   51.4578 H       1  ZINC001109404798    0.1200
     16 C16        -1.5697    1.1734   49.8626 C.3     1  ZINC001109404798    0.1500
     17 H17        -1.7057    0.0928   49.8197 H       1  ZINC001109404798    0.1000
     18 N18        -2.7019    1.8076   50.5421 N.am    1  ZINC001109404798   -0.7200
     19 C19        -3.9304    1.2595   50.4595 C.2     1  ZINC001109404798    0.5100
     20 O20        -4.0983    0.2404   49.8238 O.2     1  ZINC001109404798   -0.5300
     21 C21        -5.0956    1.9129   51.1571 C.3     1  ZINC001109404798   -0.1300
     22 C22        -6.3975    1.2448   50.7103 C.3     1  ZINC001109404798   -0.0400
     23 C23        -7.5264    1.6999   51.5989 C.2     1  ZINC001109404798   -0.1000
     24 C24        -7.6831    2.9730   51.9646 C.2     1  ZINC001109404798   -0.2100
     25 S25        -9.1006    3.1204   52.9954 S.3     1  ZINC001109404798    0.1000
     26 C26        -9.4098    1.3937   52.8678 C.2     1  ZINC001109404798   -0.2100
     27 C27        -8.4826    0.8293   52.0925 C.2     1  ZINC001109404798   -0.1300
     28 C28        -1.3533    1.7490   48.4103 C.3     1  ZINC001109404798   -0.1100
     29 N29         2.8960    1.2739   47.5675 N.2     1  ZINC001109404798   -0.4800
     30 H30         3.7075    1.6721   44.6480 H       1  ZINC001109404798    0.0900
     31 H31         5.3178    1.2027   45.2437 H       1  ZINC001109404798    0.0900
     32 H32         3.9553    0.0645   45.3708 H       1  ZINC001109404798    0.0900
     33 H33         3.6531    1.4383   51.2007 H       1  ZINC001109404798    0.0700
     34 H34         2.0223    1.0106   51.7717 H       1  ZINC001109404798    0.0800
     35 H35         2.7978    0.0480   50.4908 H       1  ZINC001109404798    0.0800
     36 H36         0.8114    4.2655   49.3453 H       1  ZINC001109404798    0.0700
     37 H37        -0.9617    4.2341   49.0801 H       1  ZINC001109404798    0.0800
     38 H38         0.5091    3.3926   51.4689 H       1  ZINC001109404798    0.0700
     39 H39        -1.2639    3.3614   51.2038 H       1  ZINC001109404798    0.0800
     40 H40        -2.5676    2.6221   51.0515 H       1  ZINC001109404798    0.4000
     41 H41        -4.9819    1.8025   52.2355 H       1  ZINC001109404798    0.0900
     42 H42        -5.1245    2.9722   50.9015 H       1  ZINC001109404798    0.1000
     43 H43        -6.6127    1.5224   49.6784 H       1  ZINC001109404798    0.0800
     44 H44        -6.2931    0.1622   50.7812 H       1  ZINC001109404798    0.0800
     45 H45        -7.0380    3.7886   51.6728 H       1  ZINC001109404798    0.1600
     46 H46       -10.2280    0.8711   53.3410 H       1  ZINC001109404798    0.1600
     47 H47        -8.4741   -0.2282   51.8731 H       1  ZINC001109404798    0.1400
     48 H48        -2.0920    2.5194   48.1889 H       1  ZINC001109404798    0.0800
     49 H49        -1.3970    0.9499   47.6703 H       1  ZINC001109404798    0.0900
@<TRIPOS>BOND
     1     1     2    1
     2     1    30    1
     3     1    31    1
     4     1    32    1
     5     2    29    1
     6     2     3    2
     7     3     4    1
     8     4     5    1
     9     5     6    1
    10     5    29    2
    11     6     7    1
    12     6     8    1
    13     6     9    1
    14     8    33    1
    15     8    34    1
    16     8    35    1
    17     9    14    1
    18     9    10    1
    19    10    11    1
    20    10    28    1
    21    10    12    1
    22    12    13    1
    23    12    36    1
    24    12    37    1
    25    13    14    1
    26    13    38    1
    27    13    39    1
    28    14    15    1
    29    14    16    1
    30    16    17    1
    31    16    18    1
    32    16    28    1
    33    18    19   am
    34    18    40    1
    35    19    20    2
    36    19    21    1
    37    21    22    1
    38    21    41    1
    39    21    42    1
    40    22    23    1
    41    22    43    1
    42    22    44    1
    43    23    27    1
    44    23    24    2
    45    24    25    1
    46    24    45    1
    47    25    26    1
    48    26    27    2
    49    26    46    1
    50    27    47    1
    51    28    48    1
    52    28    49    1
@<TRIPOS>SUBSTRUCTURE
     1 ZINC001109404798        1 TEMP              0 ****  ****    0 ROOT


##########                                Name:    ZINC000632456679
##########                DOCK_Rotatable_Bonds:                   6
##########                         Heavy_Atoms:                  24
##########                    Molecular_Weight:              374.82
##########                DOCK_Rotatable_Bonds:                   6
##########                       Formal_Charge:          -0.0299999
##########                     HBond_Acceptors:                   9
##########                        HBond_Donors:                   1
##########                         Heavy_Atoms:                  24
##########                          Grid_Score:          -30.105143
##########                     Grid_vdw_energy:          -29.941942
##########                      Grid_es_energy:           -0.163201
##########           Internal_energy_repulsive:           44.283794

@<TRIPOS>MOLECULE
ZINC000632456679
 40 41 1 0 0
SMALL
USER_CHARGES


@<TRIPOS>ATOM
      1 C1          0.1728    4.0223   51.5409 C.3     1  ZINC000632456679   -0.1600
      2 C2         -0.1917    2.7929   50.7062 C.3     1  ZINC000632456679    0.1900
      3 C3         -0.0329    3.1200   49.2201 C.3     1  ZINC000632456679   -0.2000
      4 C4          0.7356    1.6331   51.0750 C.3     1  ZINC000632456679   -0.6300
      5 S5          2.2907    1.7859   50.1537 S.o2    1  ZINC000632456679    2.4100
      6 C6          3.3687    0.6298   51.0436 C.3     1  ZINC000632456679   -0.6600
      7 O7          2.0871    1.2926   48.8367 O.2     1  ZINC000632456679   -0.9300
      8 O8          2.7946    3.1027   50.3312 O.2     1  ZINC000632456679   -0.9300
      9 N9         -1.5803    2.4130   50.9771 N.am    1  ZINC000632456679   -0.7200
     10 C10        -2.1149    1.3352   50.3696 C.2     1  ZINC000632456679    0.6200
     11 O11        -1.4451    0.6791   49.5956 O.2     1  ZINC000632456679   -0.5000
     12 C12        -3.5128    0.9516   50.6437 C.2     1  ZINC000632456679   -0.0900
     13 C13        -4.4539    1.6974   51.2952 C.2     1  ZINC000632456679   -0.1300
     14 C14        -5.6100    0.8693   51.2841 C.2     1  ZINC000632456679    0.0400
     15 C15        -6.9391    1.1888   51.8620 C.ar    1  ZINC000632456679   -0.0500
     16 C16        -8.0483    0.4116   51.5361 C.ar    1  ZINC000632456679   -0.0600
     17 C17        -9.2825    0.7125   52.0760 C.ar    1  ZINC000632456679   -0.1100
     18 C18        -9.4213    1.7840   52.9396 C.ar    1  ZINC000632456679   -0.0700
     19 C19        -8.3247    2.5611   53.2685 C.ar    1  ZINC000632456679   -0.0800
     20 Cl20       -8.5076    3.9042   54.3531 Cl      1  ZINC000632456679   -0.0400
     21 C21        -7.0813    2.2652   52.7383 C.ar    1  ZINC000632456679    0.1400
     22 F22        -6.0101    3.0234   53.0593 F       1  ZINC000632456679   -0.1100
     23 N23        -5.2683   -0.2309   50.6616 N.2     1  ZINC000632456679   -0.3200
     24 O24        -4.1165   -0.2007   50.2961 O.3     1  ZINC000632456679    0.1400
     25 H25        -0.4877    4.8486   51.2782 H       1  ZINC000632456679    0.0900
     26 H26         0.0597    3.7892   52.5996 H       1  ZINC000632456679    0.0600
     27 H27         1.2060    4.3050   51.3394 H       1  ZINC000632456679    0.0700
     28 H28         1.0003    3.4027   49.0186 H       1  ZINC000632456679    0.0800
     29 H29        -0.2924    2.2441   48.6255 H       1  ZINC000632456679    0.0800
     30 H30        -0.6935    3.9463   48.9574 H       1  ZINC000632456679    0.0900
     31 H31         0.9430    1.6596   52.1447 H       1  ZINC000632456679    0.1600
     32 H32         0.2545    0.6885   50.8215 H       1  ZINC000632456679    0.1400
     33 H33         2.9420   -0.3723   50.9992 H       1  ZINC000632456679    0.1300
     34 H34         4.3561    0.6250   50.5820 H       1  ZINC000632456679    0.1300
     35 H35         3.4557    0.9419   52.0843 H       1  ZINC000632456679    0.1300
     36 H36        -2.1151    2.9372   51.5936 H       1  ZINC000632456679    0.4200
     37 H37        -4.3452    2.6845   51.7198 H       1  ZINC000632456679    0.1900
     38 H38        -7.9429   -0.4252   50.8616 H       1  ZINC000632456679    0.1500
     39 H39       -10.1422    0.1097   51.8232 H       1  ZINC000632456679    0.1500
     40 H40       -10.3896    2.0152   53.3584 H       1  ZINC000632456679    0.1500
@<TRIPOS>BOND
     1     1     2    1
     2     1    25    1
     3     1    26    1
     4     1    27    1
     5     2     3    1
     6     2     4    1
     7     2     9    1
     8     3    28    1
     9     3    29    1
    10     3    30    1
    11     4     5    1
    12     4    31    1
    13     4    32    1
    14     5     6    1
    15     5     7    2
    16     5     8    2
    17     6    33    1
    18     6    34    1
    19     6    35    1
    20     9    10   am
    21     9    36    1
    22    10    11    2
    23    10    12    1
    24    12    24    1
    25    12    13    2
    26    13    14    1
    27    13    37    1
    28    14    15    1
    29    14    23    2
    30    15    21   ar
    31    15    16   ar
    32    16    17   ar
    33    16    38    1
    34    17    18   ar
    35    17    39    1
    36    18    19   ar
    37    18    40    1
    38    19    20    1
    39    19    21   ar
    40    21    22    1
    41    23    24    1
@<TRIPOS>SUBSTRUCTURE
     1 ZINC000632456679        1 TEMP              0 ****  ****    0 ROOT


##########                                Name:    ZINC000822449555
##########                DOCK_Rotatable_Bonds:                   5
##########                         Heavy_Atoms:                  27
##########                    Molecular_Weight:             366.383
##########                DOCK_Rotatable_Bonds:                   5
##########                       Formal_Charge:          -0.0100009
##########                     HBond_Acceptors:                  10
##########                        HBond_Donors:                   2
##########                         Heavy_Atoms:                  27
##########                          Grid_Score:          -30.093267
##########                     Grid_vdw_energy:          -29.279572
##########                      Grid_es_energy:           -0.813696
##########           Internal_energy_repulsive:            9.055173

@<TRIPOS>MOLECULE
ZINC000822449555
 45 48 1 0 0
SMALL
USER_CHARGES


@<TRIPOS>ATOM
      1 C1         -1.0680    3.0769   52.4861 C.3     1  ZINC000822449555   -0.1100
      2 C2         -0.7262    2.5211   51.1276 C.ar    1  ZINC000822449555    0.1400
      3 N3          0.5376    2.4237   50.7620 N.ar    1  ZINC000822449555   -0.5000
      4 C4          0.8843    1.9418   49.5787 C.ar    1  ZINC000822449555    0.3000
      5 N5          2.2314    1.8583   49.2373 N.3     1  ZINC000822449555   -0.4700
      6 C6          2.9882    1.1170   50.2567 C.3     1  ZINC000822449555    0.0200
      7 C7          4.4488    0.9976   49.8137 C.3     1  ZINC000822449555    0.0600
      8 O8          4.9818    2.3054   49.5883 O.3     1  ZINC000822449555   -0.3800
      9 C9          4.2691    3.0553   48.6008 C.3     1  ZINC000822449555    0.0600
     10 C10         2.8066    3.1955   49.0315 C.3     1  ZINC000822449555    0.0300
     11 C11        -0.0821    1.5176   48.6730 C.ar    1  ZINC000822449555   -0.1700
     12 C12        -1.4174    1.6048   49.0218 C.ar    1  ZINC000822449555   -0.0500
     13 C13        -1.7436    2.1127   50.2783 C.ar    1  ZINC000822449555    0.0600
     14 N14        -3.0834    2.2193   50.6741 N.am    1  ZINC000822449555   -0.6600
     15 C15        -3.8860    1.1374   50.6342 C.2     1  ZINC000822449555    0.5700
     16 O16        -3.4475    0.0687   50.2545 O.2     1  ZINC000822449555   -0.5100
     17 C17        -5.2984    1.2498   51.0514 C.ar    1  ZINC000822449555   -0.1800
     18 C18        -5.7582    2.4047   51.6987 C.ar    1  ZINC000822449555   -0.0100
     19 C19        -7.0871    2.4640   52.0701 C.ar    1  ZINC000822449555   -0.1300
     20 C20        -7.9207    1.3819   51.7910 C.ar    1  ZINC000822449555    0.2300
     21 C21        -9.3492    1.4375   52.1864 C.2     1  ZINC000822449555    0.2100
     22 N22        -9.9759    2.4605   52.7340 N.2     1  ZINC000822449555   -0.2500
     23 N23       -11.2025    2.1149   52.9252 N.pl3   1  ZINC000822449555   -0.2200
     24 N24       -11.3733    0.9061   52.5166 N.2     1  ZINC000822449555   -0.0400
     25 N25       -10.2564    0.4592   52.0512 N.2     1  ZINC000822449555   -0.2500
     26 N26        -7.4529    0.3026   51.1756 N.ar    1  ZINC000822449555   -0.4500
     27 C27        -6.1958    0.2092   50.8012 C.ar    1  ZINC000822449555    0.1400
     28 H28        -1.1035    2.2649   53.2124 H       1  ZINC000822449555    0.0800
     29 H29        -0.3079    3.7988   52.7850 H       1  ZINC000822449555    0.0800
     30 H30        -2.0396    3.5690   52.4434 H       1  ZINC000822449555    0.0700
     31 H31         2.9383    1.6498   51.2062 H       1  ZINC000822449555    0.0600
     32 H32         2.5610    0.1211   50.3744 H       1  ZINC000822449555    0.1000
     33 H33         5.0257    0.4987   50.5924 H       1  ZINC000822449555    0.1100
     34 H34         4.5034    0.4185   48.8918 H       1  ZINC000822449555    0.0600
     35 H35         4.7160    4.0445   48.5023 H       1  ZINC000822449555    0.1000
     36 H36         4.3184    2.5360   47.6438 H       1  ZINC000822449555    0.0600
     37 H37         2.2469    3.7169   48.2551 H       1  ZINC000822449555    0.1000
     38 H38         2.7538    3.7616   49.9615 H       1  ZINC000822449555    0.0600
     39 H39         0.2067    1.1254   47.7091 H       1  ZINC000822449555    0.1400
     40 H40        -2.1893    1.2832   48.3383 H       1  ZINC000822449555    0.1500
     41 H41        -3.4333    3.0719   50.9770 H       1  ZINC000822449555    0.4100
     42 H42        -5.0895    3.2279   51.9026 H       1  ZINC000822449555    0.1600
     43 H43        -7.4758    3.3382   52.5710 H       1  ZINC000822449555    0.1600
     44 H44       -11.8894    2.6773   53.3158 H       1  ZINC000822449555    0.4800
     45 H45        -5.8517   -0.6849   50.3025 H       1  ZINC000822449555    0.1700
@<TRIPOS>BOND
     1     1     2    1
     2     1    28    1
     3     1    29    1
     4     1    30    1
     5     2    13   ar
     6     2     3   ar
     7     3     4   ar
     8     4     5    1
     9     4    11   ar
    10     5    10    1
    11     5     6    1
    12     6     7    1
    13     6    31    1
    14     6    32    1
    15     7     8    1
    16     7    33    1
    17     7    34    1
    18     8     9    1
    19     9    10    1
    20     9    35    1
    21     9    36    1
    22    10    37    1
    23    10    38    1
    24    11    12   ar
    25    11    39    1
    26    12    13   ar
    27    12    40    1
    28    13    14    1
    29    14    15   am
    30    14    41    1
    31    15    16    2
    32    15    17    1
    33    17    27   ar
    34    17    18   ar
    35    18    19   ar
    36    18    42    1
    37    19    20   ar
    38    19    43    1
    39    20    21    1
    40    20    26   ar
    41    21    25    1
    42    21    22    2
    43    22    23    1
    44    23    24    1
    45    23    44    1
    46    24    25    2
    47    26    27   ar
    48    27    45    1
@<TRIPOS>SUBSTRUCTURE
     1 ZINC000822449555        1 TEMP              0 ****  ****    0 ROOT


##########                                Name:    ZINC001110536231
##########                DOCK_Rotatable_Bonds:                   8
##########                         Heavy_Atoms:                  24
##########                    Molecular_Weight:             329.442
##########                DOCK_Rotatable_Bonds:                   8
##########                       Formal_Charge:          -0.0400001
##########                     HBond_Acceptors:                   5
##########                        HBond_Donors:                   1
##########                         Heavy_Atoms:                  24
##########                          Grid_Score:          -30.064926
##########                     Grid_vdw_energy:          -30.165125
##########                      Grid_es_energy:            0.100199
##########           Internal_energy_repulsive:           30.070328

@<TRIPOS>MOLECULE
ZINC001110536231
 51 53 1 0 0
SMALL
USER_CHARGES


@<TRIPOS>ATOM
      1 C1          2.2179    3.2226   52.2935 C.3     1  ZINC001110536231   -0.1300
      2 C2          2.9268    2.8219   50.9983 C.3     1  ZINC001110536231   -0.1000
      3 C3          3.4993    1.4358   51.1470 C.2     1  ZINC001110536231   -0.0200
      4 C4          4.0809    0.9985   52.4668 C.3     1  ZINC001110536231   -0.1300
      5 C5          3.4912    0.5984   50.1138 C.2     1  ZINC001110536231   -0.2400
      6 C6          2.9234    1.0253   48.8257 C.2     1  ZINC001110536231    0.5400
      7 O7          3.6064    1.6507   48.0374 O.2     1  ZINC001110536231   -0.5300
      8 N8          1.6461    0.7234   48.5191 N.am    1  ZINC001110536231   -0.7300
      9 C9          1.0812    1.1471   47.2356 C.3     1  ZINC001110536231    0.1100
     10 H10         1.7118    0.8138   46.4114 H       1  ZINC001110536231    0.1000
     11 C11         0.9038    2.6848   47.1989 C.3     1  ZINC001110536231   -0.1600
     12 C12        -0.6329    2.8701   47.0175 C.3     1  ZINC001110536231    0.0500
     13 H13        -1.0288    3.8403   47.3178 H       1  ZINC001110536231    0.1200
     14 C14        -0.9191    2.4536   45.5432 C.3     1  ZINC001110536231   -0.1200
     15 C15        -0.7395    0.9158   45.5601 C.3     1  ZINC001110536231   -0.1100
     16 C16        -0.3707    0.6051   47.0695 C.3     1  ZINC001110536231    0.0400
     17 H17        -0.5463   -0.4200   47.3955 H       1  ZINC001110536231    0.1200
     18 N18        -1.1585    1.6812   47.7791 N.3     1  ZINC001110536231   -0.4900
     19 C19        -0.7967    1.7472   49.2014 C.3     1  ZINC001110536231    0.0600
     20 C20        -1.9906    2.1980   50.0030 C.ar    1  ZINC001110536231    0.0100
     21 C21        -2.0929    3.5085   50.4482 C.ar    1  ZINC001110536231   -0.2100
     22 C22        -3.2004    3.8888   51.1800 C.ar    1  ZINC001110536231    0.1400
     23 N23        -4.1567    3.0236   51.4586 N.ar    1  ZINC001110536231   -0.5400
     24 C24        -4.0951    1.7664   51.0519 C.ar    1  ZINC001110536231    0.3200
     25 O25        -5.1014    0.9103   51.3607 O.3     1  ZINC001110536231   -0.3100
     26 C26        -5.5643    0.0500   50.3178 C.3     1  ZINC001110536231    0.0400
     27 C27        -3.0130    1.3157   50.3072 C.ar    1  ZINC001110536231   -0.1700
     28 H28         1.8038    4.2251   52.1859 H       1  ZINC001110536231    0.0500
     29 H29         1.4130    2.5173   52.5003 H       1  ZINC001110536231    0.0700
     30 H30         2.9317    3.2108   53.1171 H       1  ZINC001110536231    0.0400
     31 H31         2.2129    2.8336   50.1746 H       1  ZINC001110536231    0.0900
     32 H32         3.7318    3.5272   50.7915 H       1  ZINC001110536231    0.0600
     33 H33         3.2994    0.5435   53.0754 H       1  ZINC001110536231    0.0800
     34 H34         4.8741    0.2716   52.2912 H       1  ZINC001110536231    0.0700
     35 H35         4.4900    1.8638   52.9881 H       1  ZINC001110536231    0.0700
     36 H36         3.9014   -0.3949   50.2205 H       1  ZINC001110536231    0.1200
     37 H37         1.1009    0.2257   49.1484 H       1  ZINC001110536231    0.4000
     38 H38         1.2362    3.1318   48.1358 H       1  ZINC001110536231    0.0700
     39 H39         1.4442    3.1134   46.3549 H       1  ZINC001110536231    0.0800
     40 H40        -1.9382    2.7178   45.2607 H       1  ZINC001110536231    0.0700
     41 H41        -0.2002    2.9166   44.8673 H       1  ZINC001110536231    0.0700
     42 H42        -1.6694    0.4178   45.2859 H       1  ZINC001110536231    0.0800
     43 H43         0.0686    0.6166   44.8925 H       1  ZINC001110536231    0.0700
     44 H44        -0.4815    0.7611   49.5423 H       1  ZINC001110536231    0.0900
     45 H45         0.0200    2.4564   49.3361 H       1  ZINC001110536231    0.0700
     46 H46        -1.3145    4.2231   50.2249 H       1  ZINC001110536231    0.1300
     47 H47        -3.2847    4.9074   51.5290 H       1  ZINC001110536231    0.1600
     48 H48        -6.3678   -0.5812   50.6973 H       1  ZINC001110536231    0.1000
     49 H49        -5.9359    0.6519   49.4884 H       1  ZINC001110536231    0.0600
     50 H50        -4.7422   -0.5768   49.9721 H       1  ZINC001110536231    0.0600
     51 H51        -2.9660    0.2887   49.9765 H       1  ZINC001110536231    0.1400
@<TRIPOS>BOND
     1     1     2    1
     2     1    28    1
     3     1    29    1
     4     1    30    1
     5     2     3    1
     6     2    31    1
     7     2    32    1
     8     3     4    1
     9     3     5    2
    10     4    33    1
    11     4    34    1
    12     4    35    1
    13     5     6    1
    14     5    36    1
    15     6     7    2
    16     6     8   am
    17     8     9    1
    18     8    37    1
    19     9    10    1
    20     9    16    1
    21     9    11    1
    22    11    12    1
    23    11    38    1
    24    11    39    1
    25    12    13    1
    26    12    18    1
    27    12    14    1
    28    14    15    1
    29    14    40    1
    30    14    41    1
    31    15    16    1
    32    15    42    1
    33    15    43    1
    34    16    17    1
    35    16    18    1
    36    18    19    1
    37    19    20    1
    38    19    44    1
    39    19    45    1
    40    20    27   ar
    41    20    21   ar
    42    21    22   ar
    43    21    46    1
    44    22    23   ar
    45    22    47    1
    46    23    24   ar
    47    24    25    1
    48    24    27   ar
    49    25    26    1
    50    26    48    1
    51    26    49    1
    52    26    50    1
    53    27    51    1
@<TRIPOS>SUBSTRUCTURE
     1 ZINC001110536231        1 TEMP              0 ****  ****    0 ROOT


##########                                Name:    ZINC001289445798
##########                DOCK_Rotatable_Bonds:                  10
##########                         Heavy_Atoms:                  25
##########                    Molecular_Weight:             352.434
##########                DOCK_Rotatable_Bonds:                  10
##########                       Formal_Charge:          0.00999932
##########                     HBond_Acceptors:                   8
##########                        HBond_Donors:                   2
##########                         Heavy_Atoms:                  25
##########                          Grid_Score:          -30.060057
##########                     Grid_vdw_energy:          -26.716015
##########                      Grid_es_energy:           -3.344042
##########           Internal_energy_repulsive:           20.046999

@<TRIPOS>MOLECULE
ZINC001289445798
 53 54 1 0 0
SMALL
USER_CHARGES


@<TRIPOS>ATOM
      1 C1         -6.1853   -0.1296   50.4586 C.3     1  ZINC001289445798   -0.1500
      2 C2         -5.1477    0.1920   51.5360 C.3     1  ZINC001289445798    0.0600
      3 O3         -5.3474    1.5267   52.0062 O.3     1  ZINC001289445798   -0.3700
      4 C4         -4.9650    2.5361   51.0700 C.3     1  ZINC001289445798    0.1100
      5 H5         -4.9334    2.1089   50.0677 H       1  ZINC001289445798    0.0700
      6 C6         -3.5813    3.0754   51.4383 C.3     1  ZINC001289445798   -0.1400
      7 C7         -2.5405    2.4304   50.5597 C.2     1  ZINC001289445798    0.5400
      8 O8         -2.8814    1.7370   49.6249 O.2     1  ZINC001289445798   -0.5200
      9 N9         -1.2311    2.6241   50.8129 N.am    1  ZINC001289445798   -0.6200
     10 C10        -0.6809    3.4306   51.9122 C.3     1  ZINC001289445798    0.1000
     11 C11         0.8569    3.3400   51.8219 C.3     1  ZINC001289445798    0.1400
     12 H12         1.2628    4.1964   51.2834 H       1  ZINC001289445798    0.1200
     13 N13         1.4497    3.2417   53.1580 N.am    1  ZINC001289445798   -0.7200
     14 C14         2.1540    4.2752   53.6603 C.2     1  ZINC001289445798    0.6000
     15 O15         2.2987    5.2889   53.0039 O.2     1  ZINC001289445798   -0.5100
     16 C16         2.7480    4.1773   55.0032 C.2     1  ZINC001289445798   -0.0500
     17 C17         3.5000    5.1417   55.6514 C.2     1  ZINC001289445798   -0.1400
     18 C18         3.8316    4.5831   56.8878 C.2     1  ZINC001289445798    0.0000
     19 N19         3.3063    3.3858   56.9412 N.2     1  ZINC001289445798   -0.2700
     20 N20         2.6627    3.1186   55.8622 N.pl3   1  ZINC001289445798   -0.3800
     21 C21         1.0814    2.0308   51.0199 C.3     1  ZINC001289445798    0.0700
     22 H22         1.0275    1.1591   51.6720 H       1  ZINC001289445798    0.0900
     23 O23         2.3263    2.0665   50.3191 O.3     1  ZINC001289445798   -0.3700
     24 C24         2.8527    0.7761   50.0033 C.3     1  ZINC001289445798    0.0300
     25 C25        -0.1130    2.0569   50.0373 C.3     1  ZINC001289445798    0.0800
     26 C26        -5.9832    3.6774   51.1059 C.3     1  ZINC001289445798   -0.1100
     27 C27        -7.0358    3.4565   50.0177 C.3     1  ZINC001289445798   -0.1500
     28 C28        -6.6647    3.7099   52.4754 C.3     1  ZINC001289445798   -0.1500
     29 H29        -6.0754    0.5682   49.6286 H       1  ZINC001289445798    0.0600
     30 H30        -6.0330   -1.1476   50.1000 H       1  ZINC001289445798    0.0700
     31 H31        -7.1865   -0.0388   50.8797 H       1  ZINC001289445798    0.0600
     32 H32        -5.2575   -0.5057   52.3661 H       1  ZINC001289445798    0.0500
     33 H33        -4.1465    0.1011   51.1149 H       1  ZINC001289445798    0.0500
     34 H34        -3.5615    4.1554   51.2920 H       1  ZINC001289445798    0.1100
     35 H35        -3.3681    2.8462   52.4824 H       1  ZINC001289445798    0.1000
     36 H36        -0.9981    4.4680   51.8055 H       1  ZINC001289445798    0.0800
     37 H37        -1.0202    3.0337   52.8690 H       1  ZINC001289445798    0.0800
     38 H38         1.3355    2.4329   53.6811 H       1  ZINC001289445798    0.4000
     39 H39         3.7725    6.1185   55.2798 H       1  ZINC001289445798    0.1700
     40 H40         4.4179    5.0554   57.6621 H       1  ZINC001289445798    0.1900
     41 H41         2.1935    2.2890   55.6820 H       1  ZINC001289445798    0.4400
     42 H42         3.7979    0.8893   49.4724 H       1  ZINC001289445798    0.0900
     43 H43         3.0178    0.2159   50.9236 H       1  ZINC001289445798    0.0400
     44 H44         2.1441    0.2389   49.3729 H       1  ZINC001289445798    0.0500
     45 H45        -0.3518    1.0471   49.7037 H       1  ZINC001289445798    0.0900
     46 H46         0.1122    2.6961   49.1835 H       1  ZINC001289445798    0.0900
     47 H47        -5.4734    4.6249   50.9313 H       1  ZINC001289445798    0.0800
     48 H48        -7.5457    2.5090   50.1924 H       1  ZINC001289445798    0.0600
     49 H49        -7.7613    4.2696   50.0434 H       1  ZINC001289445798    0.0600
     50 H50        -6.5503    3.4334   49.0420 H       1  ZINC001289445798    0.0600
     51 H51        -5.9311    3.9643   53.2404 H       1  ZINC001289445798    0.0600
     52 H52        -7.4574    4.4580   52.4692 H       1  ZINC001289445798    0.0600
     53 H53        -7.0911    2.7305   52.6925 H       1  ZINC001289445798    0.0500
@<TRIPOS>BOND
     1     1     2    1
     2     1    29    1
     3     1    30    1
     4     1    31    1
     5     2     3    1
     6     2    32    1
     7     2    33    1
     8     3     4    1
     9     4     5    1
    10     4     6    1
    11     4    26    1
    12     6     7    1
    13     6    34    1
    14     6    35    1
    15     7     8    2
    16     7     9   am
    17     9    25    1
    18     9    10    1
    19    10    11    1
    20    10    36    1
    21    10    37    1
    22    11    12    1
    23    11    13    1
    24    11    21    1
    25    13    14   am
    26    13    38    1
    27    14    15    2
    28    14    16    1
    29    16    20    1
    30    16    17    2
    31    17    18    1
    32    17    39    1
    33    18    19    2
    34    18    40    1
    35    19    20    1
    36    20    41    1
    37    21    22    1
    38    21    23    1
    39    21    25    1
    40    23    24    1
    41    24    42    1
    42    24    43    1
    43    24    44    1
    44    25    45    1
    45    25    46    1
    46    26    27    1
    47    26    28    1
    48    26    47    1
    49    27    48    1
    50    27    49    1
    51    27    50    1
    52    28    51    1
    53    28    52    1
    54    28    53    1
@<TRIPOS>SUBSTRUCTURE
     1 ZINC001289445798        1 TEMP              0 ****  ****    0 ROOT


##########                                Name:    ZINC000564088286
##########                DOCK_Rotatable_Bonds:                   6
##########                         Heavy_Atoms:                  25
##########                    Molecular_Weight:             398.934
##########                DOCK_Rotatable_Bonds:                   6
##########                       Formal_Charge:               -0.05
##########                     HBond_Acceptors:                   8
##########                        HBond_Donors:                   1
##########                         Heavy_Atoms:                  25
##########                          Grid_Score:          -30.058105
##########                     Grid_vdw_energy:          -30.628925
##########                      Grid_es_energy:            0.570819
##########           Internal_energy_repulsive:           12.040092

@<TRIPOS>MOLECULE
ZINC000564088286
 44 46 1 0 0
SMALL
USER_CHARGES


@<TRIPOS>ATOM
      1 C1        -10.2133   -3.1175   58.4131 C.3     1  ZINC000564088286   -0.1600
      2 C2        -10.3628   -2.0075   57.3706 C.3     1  ZINC000564088286    0.1100
      3 N3        -11.6354   -2.1699   56.6635 N.am    1  ZINC000564088286   -1.1200
      4 S4        -12.5034   -0.8364   56.2042 S.o2    1  ZINC000564088286    2.7000
      5 O5        -13.5883   -1.3143   55.4206 O.2     1  ZINC000564088286   -0.9600
      6 O6        -12.6773   -0.0484   57.3738 O.2     1  ZINC000564088286   -0.9600
      7 C7        -11.4815    0.1026   55.1188 C.ar    1  ZINC000564088286   -0.6800
      8 C8        -10.3441    0.7215   55.6031 C.ar    1  ZINC000564088286   -0.0200
      9 C9         -9.5423    1.4583   54.7516 C.ar    1  ZINC000564088286   -0.1300
     10 C10        -9.8775    1.5759   53.4156 C.ar    1  ZINC000564088286   -0.0100
     11 C11        -9.0037    2.3796   52.4874 C.3     1  ZINC000564088286   -0.1100
     12 C12        -8.0024    1.4683   51.8255 C.2     1  ZINC000564088286    0.5200
     13 O13        -8.0703    0.2691   51.9932 O.2     1  ZINC000564088286   -0.5200
     14 N14        -7.0317    1.9859   51.0470 N.am    1  ZINC000564088286   -0.6200
     15 C15        -6.9314    3.4371   50.8302 C.3     1  ZINC000564088286    0.1200
     16 C16        -5.6201    3.9332   51.4473 C.3     1  ZINC000564088286   -0.0700
     17 C17        -4.5005    2.9936   51.0523 C.2     1  ZINC000564088286   -0.1600
     18 C18        -4.6688    1.7404   50.5906 C.2     1  ZINC000564088286   -0.1200
     19 C19        -3.4763    1.0808   50.3079 C.2     1  ZINC000564088286   -0.1100
     20 C20        -2.3661    1.7806   50.5265 C.2     1  ZINC000564088286   -0.1500
     21 Cl21       -0.7507    1.2049   50.2571 Cl      1  ZINC000564088286   -0.0100
     22 S22        -2.7855    3.3770   51.1290 S.3     1  ZINC000564088286    0.1600
     23 C23        -6.0415    1.1155   50.3973 C.3     1  ZINC000564088286    0.1700
     24 C24       -11.0141    0.9560   52.9311 C.ar    1  ZINC000564088286   -0.1300
     25 C25       -11.8138    0.2160   53.7818 C.ar    1  ZINC000564088286   -0.0200
     26 H26       -11.0353   -3.0591   59.1265 H       1  ZINC000564088286    0.0600
     27 H27       -10.2316   -4.0874   57.9161 H       1  ZINC000564088286    0.0600
     28 H28        -9.2663   -2.9967   58.9392 H       1  ZINC000564088286    0.0700
     29 H29       -10.3443   -1.0375   57.8676 H       1  ZINC000564088286    0.0800
     30 H30        -9.5407   -2.0659   56.6573 H       1  ZINC000564088286    0.0700
     31 H31       -11.9697   -3.0584   56.4643 H       1  ZINC000564088286    0.4200
     32 H32       -10.0822    0.6295   56.6468 H       1  ZINC000564088286    0.1400
     33 H33        -8.6541    1.9423   55.1301 H       1  ZINC000564088286    0.1300
     34 H34        -9.6224    2.8539   51.7257 H       1  ZINC000564088286    0.1100
     35 H35        -8.4770    3.1456   53.0566 H       1  ZINC000564088286    0.1100
     36 H36        -6.9358    3.6486   49.7610 H       1  ZINC000564088286    0.0800
     37 H37        -7.7734    3.9376   51.3085 H       1  ZINC000564088286    0.1100
     38 H38        -5.4009    4.9359   51.0802 H       1  ZINC000564088286    0.0900
     39 H39        -5.7128    3.9535   52.5332 H       1  ZINC000564088286    0.0900
     40 H40        -3.4535    0.0671   49.9359 H       1  ZINC000564088286    0.1500
     41 H41        -6.0634    0.1247   50.8510 H       1  ZINC000564088286    0.1000
     42 H42        -6.2664    1.0402   49.3334 H       1  ZINC000564088286    0.0900
     43 H43       -11.2758    1.0476   51.8873 H       1  ZINC000564088286    0.1300
     44 H44       -12.7018   -0.2683   53.4033 H       1  ZINC000564088286    0.1400
@<TRIPOS>BOND
     1     1     2    1
     2     1    26    1
     3     1    27    1
     4     1    28    1
     5     2     3    1
     6     2    29    1
     7     2    30    1
     8     3     4   am
     9     3    31    1
    10     4     5    2
    11     4     6    2
    12     4     7    1
    13     7    25   ar
    14     7     8   ar
    15     8     9   ar
    16     8    32    1
    17     9    10   ar
    18     9    33    1
    19    10    11    1
    20    10    24   ar
    21    11    12    1
    22    11    34    1
    23    11    35    1
    24    12    13    2
    25    12    14   am
    26    14    23    1
    27    14    15    1
    28    15    16    1
    29    15    36    1
    30    15    37    1
    31    16    17    1
    32    16    38    1
    33    16    39    1
    34    17    22    1
    35    17    18    2
    36    18    19    1
    37    18    23    1
    38    19    20    2
    39    19    40    1
    40    20    21    1
    41    20    22    1
    42    23    41    1
    43    23    42    1
    44    24    25   ar
    45    24    43    1
    46    25    44    1
@<TRIPOS>SUBSTRUCTURE
     1 ZINC000564088286        1 TEMP              0 ****  ****    0 ROOT


##########                                Name:    ZINC000119180466
##########                DOCK_Rotatable_Bonds:                  10
##########                         Heavy_Atoms:                  23
##########                    Molecular_Weight:             350.405
##########                DOCK_Rotatable_Bonds:                  10
##########                       Formal_Charge:           0.0299997
##########                     HBond_Acceptors:                   8
##########                        HBond_Donors:                   3
##########                         Heavy_Atoms:                  23
##########                          Grid_Score:          -30.032753
##########                     Grid_vdw_energy:          -28.281853
##########                      Grid_es_energy:           -1.750901
##########           Internal_energy_repulsive:           14.533763

@<TRIPOS>MOLECULE
ZINC000119180466
 44 44 1 0 0
SMALL
USER_CHARGES


@<TRIPOS>ATOM
      1 C1         -7.0646    7.4223   46.6693 C.3     1  ZINC000119180466   -0.1300
      2 S2         -7.2515    6.7635   48.3490 S.3     1  ZINC000119180466   -0.2200
      3 C3         -8.9868    6.2366   48.3900 C.3     1  ZINC000119180466   -0.0700
      4 H4         -9.2763    5.8628   47.4079 H       1  ZINC000119180466    0.1100
      5 C5         -9.8725    7.4267   48.7641 C.3     1  ZINC000119180466    0.0800
      6 O6        -11.0228    7.4493   47.9166 O.3     1  ZINC000119180466   -0.5600
      7 C7         -9.1583    5.1267   49.4291 C.3     1  ZINC000119180466    0.1900
      8 H8         -8.9406    5.5213   50.4215 H       1  ZINC000119180466    0.1000
      9 C9        -10.5979    4.6100   49.3903 C.3     1  ZINC000119180466   -0.1700
     10 N10        -8.2370    4.0286   49.1271 N.am    1  ZINC000119180466   -0.7200
     11 C11        -7.6060    3.3837   50.1284 C.2     1  ZINC000119180466    0.7100
     12 O12        -7.8027    3.7124   51.2824 O.2     1  ZINC000119180466   -0.6000
     13 N13        -6.7571    2.3744   49.8506 N.am    1  ZINC000119180466   -0.7400
     14 C14        -6.0726    1.6722   50.9391 C.3     1  ZINC000119180466    0.2000
     15 H15        -6.4460    2.0348   51.8967 H       1  ZINC000119180466    0.1000
     16 C16        -6.3387    0.1699   50.8236 C.3     1  ZINC000119180466   -0.1600
     17 C17        -4.5904    1.9284   50.8482 C.ar    1  ZINC000119180466   -0.0600
     18 C18        -3.8300    1.2609   49.9062 C.ar    1  ZINC000119180466   -0.1100
     19 C19        -2.4703    1.4959   49.8229 C.ar    1  ZINC000119180466   -0.0600
     20 C20        -1.8711    2.3986   50.6814 C.ar    1  ZINC000119180466   -0.1800
     21 C21        -0.3887    2.6544   50.5910 C.3     1  ZINC000119180466    0.5100
     22 F22        -0.1236    3.9855   50.9303 F       1  ZINC000119180466   -0.1800
     23 F23         0.2859    1.8048   51.4743 F       1  ZINC000119180466   -0.1800
     24 F24         0.0478    2.4105   49.2844 F       1  ZINC000119180466   -0.1800
     25 C25        -2.6316    3.0670   51.6225 C.ar    1  ZINC000119180466   -0.0600
     26 C26        -3.9920    2.8349   51.7032 C.ar    1  ZINC000119180466   -0.1100
     27 H27        -7.7577    8.2511   46.5249 H       1  ZINC000119180466    0.0800
     28 H28        -6.0427    7.7745   46.5287 H       1  ZINC000119180466    0.1000
     29 H29        -7.2813    6.6372   45.9448 H       1  ZINC000119180466    0.0800
     30 H30       -10.1884    7.3321   49.8031 H       1  ZINC000119180466    0.0500
     31 H31        -9.3102    8.3519   48.6383 H       1  ZINC000119180466    0.0600
     32 H32       -10.8184    7.5706   46.9793 H       1  ZINC000119180466    0.3800
     33 H33       -10.8158    4.2154   48.3979 H       1  ZINC000119180466    0.0700
     34 H34       -10.7201    3.8192   50.1306 H       1  ZINC000119180466    0.0700
     35 H35       -11.2835    5.4270   49.6150 H       1  ZINC000119180466    0.0700
     36 H36        -8.0810    3.7655   48.2066 H       1  ZINC000119180466    0.4100
     37 H37        -6.5993    2.1129   48.9299 H       1  ZINC000119180466    0.4000
     38 H38        -5.8295   -0.3525   51.6334 H       1  ZINC000119180466    0.0700
     39 H39        -7.4109   -0.0152   50.8893 H       1  ZINC000119180466    0.0700
     40 H40        -5.9653   -0.1926   49.8659 H       1  ZINC000119180466    0.0600
     41 H41        -4.2983    0.5557   49.2356 H       1  ZINC000119180466    0.1300
     42 H42        -1.8762    0.9739   49.0874 H       1  ZINC000119180466    0.1400
     43 H43        -2.1634    3.7725   52.2930 H       1  ZINC000119180466    0.1400
     44 H44        -4.5862    3.3571   52.4385 H       1  ZINC000119180466    0.1400
@<TRIPOS>BOND
     1     1     2    1
     2     1    27    1
     3     1    28    1
     4     1    29    1
     5     2     3    1
     6     3     4    1
     7     3     5    1
     8     3     7    1
     9     5     6    1
    10     5    30    1
    11     5    31    1
    12     6    32    1
    13     7     8    1
    14     7     9    1
    15     7    10    1
    16     9    33    1
    17     9    34    1
    18     9    35    1
    19    10    11   am
    20    10    36    1
    21    11    12    2
    22    11    13   am
    23    13    14    1
    24    13    37    1
    25    14    15    1
    26    14    16    1
    27    14    17    1
    28    16    38    1
    29    16    39    1
    30    16    40    1
    31    17    26   ar
    32    17    18   ar
    33    18    19   ar
    34    18    41    1
    35    19    20   ar
    36    19    42    1
    37    20    21    1
    38    20    25   ar
    39    21    22    1
    40    21    23    1
    41    21    24    1
    42    25    26   ar
    43    25    43    1
    44    26    44    1
@<TRIPOS>SUBSTRUCTURE
     1 ZINC000119180466        1 TEMP              0 ****  ****    0 ROOT


##########                                Name:    ZINC000535362552
##########                DOCK_Rotatable_Bonds:                   5
##########                         Heavy_Atoms:                  26
##########                    Molecular_Weight:             416.228
##########                DOCK_Rotatable_Bonds:                   5
##########                       Formal_Charge:         -0.00999981
##########                     HBond_Acceptors:                   6
##########                        HBond_Donors:                   1
##########                         Heavy_Atoms:                  26
##########                          Grid_Score:          -30.024900
##########                     Grid_vdw_energy:          -30.175734
##########                      Grid_es_energy:            0.150833
##########           Internal_energy_repulsive:            5.022582

@<TRIPOS>MOLECULE
ZINC000535362552
 40 43 1 0 0
SMALL
USER_CHARGES


@<TRIPOS>ATOM
      1 C1        -11.5780    0.5744   54.5280 C.3     1  ZINC000535362552    0.0300
      2 O2        -10.4217    0.6373   53.6522 O.3     1  ZINC000535362552   -0.3400
      3 C3         -9.3900    1.4072   54.0544 C.2     1  ZINC000535362552    0.5500
      4 O4         -9.4563    2.0102   55.1082 O.2     1  ZINC000535362552   -0.4800
      5 C5         -8.1872    1.5173   53.2201 C.2     1  ZINC000535362552   -0.0100
      6 C6         -7.1029    2.2842   53.5084 C.2     1  ZINC000535362552   -0.0900
      7 C7         -6.1605    2.0830   52.4085 C.ar    1  ZINC000535362552   -0.1300
      8 C8         -4.8876    2.5783   52.1166 C.ar    1  ZINC000535362552   -0.0600
      9 C9         -4.2492    2.1764   50.9583 C.ar    1  ZINC000535362552    0.1200
     10 N10        -2.9720    2.6679   50.6577 N.am    1  ZINC000535362552   -0.6700
     11 C11        -1.9491    1.8120   50.4637 C.2     1  ZINC000535362552    0.5200
     12 O12        -2.1342    0.6163   50.5492 O.2     1  ZINC000535362552   -0.5000
     13 C13        -0.5754    2.3405   50.1404 C.3     1  ZINC000535362552   -0.1000
     14 H14        -0.5669    3.4305   50.1517 H       1  ZINC000535362552    0.1300
     15 C15         0.4805    1.7694   51.1162 C.3     1  ZINC000535362552    0.0600
     16 O16         1.6299    1.5891   50.2716 O.3     1  ZINC000535362552   -0.2900
     17 C17         1.2171    1.3751   48.9919 C.ar    1  ZINC000535362552    0.1300
     18 C18         1.8992    0.8134   47.9158 C.ar    1  ZINC000535362552   -0.1300
     19 C19         1.2840    0.6990   46.6862 C.ar    1  ZINC000535362552   -0.0500
     20 C20        -0.0148    1.1413   46.5108 C.ar    1  ZINC000535362552   -0.1200
     21 Br21       -0.8503    0.9866   44.8214 Br      1  ZINC000535362552   -0.0400
     22 C22        -0.7011    1.6974   47.5772 C.ar    1  ZINC000535362552   -0.0100
     23 C23        -0.0903    1.8086   48.8057 C.ar    1  ZINC000535362552   -0.1600
     24 C24        -4.8729    1.2831   50.0888 C.ar    1  ZINC000535362552   -0.0900
     25 C25        -6.1280    0.7904   50.3687 C.ar    1  ZINC000535362552   -0.0900
     26 C26        -6.7875    1.1810   51.5283 C.ar    1  ZINC000535362552    0.0700
     27 O27        -7.9888    0.8678   52.0540 O.3     1  ZINC000535362552   -0.1700
     28 H28       -11.9917    1.5747   54.6559 H       1  ZINC000535362552    0.0700
     29 H29       -12.3326   -0.0771   54.0871 H       1  ZINC000535362552    0.1100
     30 H30       -11.2780    0.1784   55.4980 H       1  ZINC000535362552    0.0700
     31 H31        -6.9654    2.9151   54.3742 H       1  ZINC000535362552    0.1800
     32 H32        -4.4057    3.2706   52.7910 H       1  ZINC000535362552    0.1400
     33 H33        -2.8240    3.6241   50.5893 H       1  ZINC000535362552    0.4100
     34 H34         0.6949    2.4814   51.9132 H       1  ZINC000535362552    0.1200
     35 H35         0.1502    0.8156   51.5276 H       1  ZINC000535362552    0.0900
     36 H36         2.9136    0.4657   48.0442 H       1  ZINC000535362552    0.1400
     37 H37         1.8194    0.2623   45.8561 H       1  ZINC000535362552    0.1400
     38 H38        -1.7154    2.0441   47.4452 H       1  ZINC000535362552    0.1400
     39 H39        -4.3666    0.9746   49.1860 H       1  ZINC000535362552    0.1500
     40 H40        -6.6005    0.0994   49.6865 H       1  ZINC000535362552    0.1500
@<TRIPOS>BOND
     1     1     2    1
     2     1    28    1
     3     1    29    1
     4     1    30    1
     5     2     3    1
     6     3     4    2
     7     3     5    1
     8     5    27    1
     9     5     6    2
    10     6     7    1
    11     6    31    1
    12     7    26   ar
    13     7     8   ar
    14     8     9   ar
    15     8    32    1
    16     9    10    1
    17     9    24   ar
    18    10    11   am
    19    10    33    1
    20    11    12    2
    21    11    13    1
    22    13    14    1
    23    13    23    1
    24    13    15    1
    25    15    16    1
    26    15    34    1
    27    15    35    1
    28    16    17    1
    29    17    23   ar
    30    17    18   ar
    31    18    19   ar
    32    18    36    1
    33    19    20   ar
    34    19    37    1
    35    20    21    1
    36    20    22   ar
    37    22    23   ar
    38    22    38    1
    39    24    25   ar
    40    24    39    1
    41    25    26   ar
    42    25    40    1
    43    26    27    1
@<TRIPOS>SUBSTRUCTURE
     1 ZINC000535362552        1 TEMP              0 ****  ****    0 ROOT


##########                                Name:    ZINC001058772245
##########                DOCK_Rotatable_Bonds:                  11
##########                         Heavy_Atoms:                  22
##########                    Molecular_Weight:             335.375
##########                DOCK_Rotatable_Bonds:                  11
##########                       Formal_Charge:          0.00999964
##########                     HBond_Acceptors:                   9
##########                        HBond_Donors:                   2
##########                         Heavy_Atoms:                  22
##########                          Grid_Score:          -30.023760
##########                     Grid_vdw_energy:          -28.608072
##########                      Grid_es_energy:           -1.415688
##########           Internal_energy_repulsive:           64.967834

@<TRIPOS>MOLECULE
ZINC001058772245
 41 41 1 0 0
SMALL
USER_CHARGES


@<TRIPOS>ATOM
      1 C1         -0.0021    4.7123   46.2796 C.3     1  ZINC001058772245   -0.1700
      2 C2          1.3218    3.9456   46.2996 C.3     1  ZINC001058772245   -0.1400
      3 C3          2.4784    4.9301   46.4831 C.3     1  ZINC001058772245   -0.1500
      4 C4          1.3148    2.9607   47.4401 C.2     1  ZINC001058772245    0.5300
      5 O5          2.1123    3.0766   48.3464 O.2     1  ZINC001058772245   -0.5200
      6 N6          0.4221    1.9509   47.4530 N.am    1  ZINC001058772245   -0.5900
      7 C7         -0.5413    1.8109   46.3583 C.3     1  ZINC001058772245    0.0800
      8 C8         -0.3928    0.4275   45.7220 C.3     1  ZINC001058772245    0.0400
      9 O9         -1.0862    0.4008   44.4728 O.3     1  ZINC001058772245   -0.5700
     10 C10         0.4153    0.9934   48.5617 C.3     1  ZINC001058772245    0.1100
     11 C11        -0.2548    1.6298   49.7811 C.3     1  ZINC001058772245    0.1000
     12 N12        -1.6433    1.1713   49.8702 N.am    1  ZINC001058772245   -0.7100
     13 C13        -2.4577    1.6691   50.8216 C.2     1  ZINC001058772245    0.6000
     14 O14        -2.0403    2.5003   51.6055 O.2     1  ZINC001058772245   -0.5300
     15 C15        -3.8530    1.2069   50.9122 C.2     1  ZINC001058772245    0.0000
     16 C16        -4.8025    1.8572   51.6221 C.2     1  ZINC001058772245   -0.2200
     17 S17        -6.2791    1.0085   51.4752 S.3     1  ZINC001058772245    0.2300
     18 C18        -5.5442   -0.1648   50.4754 C.2     1  ZINC001058772245    0.0000
     19 N19        -4.3000    0.1093   50.2965 N.2     1  ZINC001058772245   -0.4400
     20 C20         1.4962    3.1946   44.9781 C.3     1  ZINC001058772245    0.2900
     21 F21         0.5509    3.6518   44.0536 F       1  ZINC001058772245   -0.1900
     22 F22         2.7836    3.4210   44.4794 F       1  ZINC001058772245   -0.2000
     23 H23        -0.1231    5.2034   45.3141 H       1  ZINC001058772245    0.0800
     24 H24        -0.8267    4.0176   46.4397 H       1  ZINC001058772245    0.0700
     25 H25         0.0001    5.4620   47.0709 H       1  ZINC001058772245    0.0900
     26 H26         2.5067    5.2686   47.5188 H       1  ZINC001058772245    0.0800
     27 H27         3.4184    4.4364   46.2365 H       1  ZINC001058772245    0.0700
     28 H28         2.3343    5.7868   45.8248 H       1  ZINC001058772245    0.0900
     29 H29        -1.5529    1.9250   46.7479 H       1  ZINC001058772245    0.0900
     30 H30        -0.3524    2.5784   45.6077 H       1  ZINC001058772245    0.1200
     31 H31         0.6634    0.2155   45.5558 H       1  ZINC001058772245    0.0600
     32 H32        -0.8142   -0.3257   46.3877 H       1  ZINC001058772245    0.0700
     33 H33        -2.0289    0.6051   44.5418 H       1  ZINC001058772245    0.3800
     34 H34        -0.1374    0.1011   48.2679 H       1  ZINC001058772245    0.1000
     35 H35         1.4404    0.7199   48.8119 H       1  ZINC001058772245    0.0900
     36 H36         0.2824    1.3391   50.6839 H       1  ZINC001058772245    0.0700
     37 H37        -0.2363    2.7150   49.6808 H       1  ZINC001058772245    0.0700
     38 H38        -1.9766    0.5093   49.2444 H       1  ZINC001058772245    0.4100
     39 H39        -4.6526    2.7642   52.1888 H       1  ZINC001058772245    0.1900
     40 H40        -6.0538   -1.0165   50.0497 H       1  ZINC001058772245    0.2100
     41 H41         1.3540    2.1270   45.1454 H       1  ZINC001058772245    0.1200
@<TRIPOS>BOND
     1     1     2    1
     2     1    23    1
     3     1    24    1
     4     1    25    1
     5     2     3    1
     6     2     4    1
     7     2    20    1
     8     3    26    1
     9     3    27    1
    10     3    28    1
    11     4     5    2
    12     4     6   am
    13     6     7    1
    14     6    10    1
    15     7     8    1
    16     7    29    1
    17     7    30    1
    18     8     9    1
    19     8    31    1
    20     8    32    1
    21     9    33    1
    22    10    11    1
    23    10    34    1
    24    10    35    1
    25    11    12    1
    26    11    36    1
    27    11    37    1
    28    12    13   am
    29    12    38    1
    30    13    14    2
    31    13    15    1
    32    15    19    1
    33    15    16    2
    34    16    17    1
    35    16    39    1
    36    17    18    1
    37    18    19    2
    38    18    40    1
    39    20    21    1
    40    20    22    1
    41    20    41    1
@<TRIPOS>SUBSTRUCTURE
     1 ZINC001058772245        1 TEMP              0 ****  ****    0 ROOT


##########                                Name:    ZINC000279593480
##########                DOCK_Rotatable_Bonds:                   9
##########                         Heavy_Atoms:                  23
##########                    Molecular_Weight:              340.85
##########                DOCK_Rotatable_Bonds:                   9
##########                       Formal_Charge:          -0.0500002
##########                     HBond_Acceptors:                   6
##########                        HBond_Donors:                   3
##########                         Heavy_Atoms:                  23
##########                          Grid_Score:          -29.967419
##########                     Grid_vdw_energy:          -29.470358
##########                      Grid_es_energy:           -0.497061
##########           Internal_energy_repulsive:           19.460436

@<TRIPOS>MOLECULE
ZINC000279593480
 48 49 1 0 0
SMALL
USER_CHARGES


@<TRIPOS>ATOM
      1 C1          1.8419    2.2850   50.3055 C.3     1  ZINC000279593480   -0.1400
      2 C2          0.5542    2.5172   49.5123 C.3     1  ZINC000279593480   -0.1400
      3 C3         -0.1096    1.1718   49.2123 C.3     1  ZINC000279593480    0.1700
      4 H4          0.0333    0.4995   50.0582 H       1  ZINC000279593480    0.0900
      5 C5          0.5227    0.5590   47.9611 C.3     1  ZINC000279593480   -0.0900
      6 C6          0.3964    1.5240   46.8104 C.ar    1  ZINC000279593480   -0.0800
      7 C7          1.4786    2.2987   46.4365 C.ar    1  ZINC000279593480   -0.1000
      8 C8          1.3635    3.1838   45.3812 C.ar    1  ZINC000279593480   -0.1100
      9 C9          0.1649    3.2944   44.6991 C.ar    1  ZINC000279593480   -0.0400
     10 Cl10        0.0196    4.4056   43.3732 Cl      1  ZINC000279593480   -0.0700
     11 C11        -0.9178    2.5189   45.0738 C.ar    1  ZINC000279593480   -0.1100
     12 C12        -0.7998    1.6300   46.1256 C.ar    1  ZINC000279593480   -0.1000
     13 N13        -1.5428    1.3741   48.9860 N.am    1  ZINC000279593480   -0.7400
     14 C14        -2.3585    1.6387   50.0258 C.2     1  ZINC000279593480    0.7100
     15 O15        -1.9045    1.7109   51.1515 O.2     1  ZINC000279593480   -0.5800
     16 N16        -3.6773    1.8232   49.8179 N.am    1  ZINC000279593480   -0.7500
     17 C17        -4.5635    2.1125   50.9479 C.3     1  ZINC000279593480    0.1200
     18 C18        -6.0196    2.0587   50.4809 C.3     1  ZINC000279593480    0.0900
     19 O19        -6.1209    2.4633   49.1141 O.3     1  ZINC000279593480   -0.5400
     20 C20        -6.5975    0.6387   50.6726 C.3     1  ZINC000279593480   -0.1900
     21 C21        -7.7673    0.8398   51.6613 C.3     1  ZINC000279593480    0.0500
     22 O22        -8.1503    2.2234   51.5032 O.3     1  ZINC000279593480   -0.3600
     23 C23        -6.9085    2.9499   51.3765 C.3     1  ZINC000279593480    0.0900
     24 H24        -6.4466    3.0854   52.3545 H       1  ZINC000279593480    0.0800
     25 C25        -7.1503    4.3058   50.7101 C.3     1  ZINC000279593480   -0.1400
     26 H26         2.5225    1.6665   49.7204 H       1  ZINC000279593480    0.0600
     27 H27         2.3147    3.2435   50.5192 H       1  ZINC000279593480    0.0400
     28 H28         1.6056    1.7796   51.2419 H       1  ZINC000279593480    0.0600
     29 H29        -0.1264    3.1357   50.0974 H       1  ZINC000279593480    0.0600
     30 H30         0.7905    3.0227   48.5759 H       1  ZINC000279593480    0.0700
     31 H31         1.5766    0.3543   48.1496 H       1  ZINC000279593480    0.0800
     32 H32         0.0106   -0.3708   47.7134 H       1  ZINC000279593480    0.0900
     33 H33         2.4141    2.2124   46.9692 H       1  ZINC000279593480    0.1300
     34 H34         2.2089    3.7893   45.0893 H       1  ZINC000279593480    0.1300
     35 H35        -1.8538    2.6050   44.5420 H       1  ZINC000279593480    0.1300
     36 H36        -1.6447    1.0242   46.4180 H       1  ZINC000279593480    0.1300
     37 H37        -1.9048    1.3176   48.0878 H       1  ZINC000279593480    0.3900
     38 H38        -4.0396    1.7643   48.9200 H       1  ZINC000279593480    0.3900
     39 H39        -4.4059    1.3721   51.7321 H       1  ZINC000279593480    0.0800
     40 H40        -4.3433    3.1066   51.3372 H       1  ZINC000279593480    0.0800
     41 H41        -6.9217    2.1522   48.6702 H       1  ZINC000279593480    0.3700
     42 H42        -6.9625    0.2437   49.7245 H       1  ZINC000279593480    0.0900
     43 H43        -5.8460   -0.0250   51.1000 H       1  ZINC000279593480    0.0900
     44 H44        -8.5990    0.1841   51.4037 H       1  ZINC000279593480    0.1000
     45 H45        -7.4372    0.6518   52.6830 H       1  ZINC000279593480    0.0600
     46 H46        -7.8230    4.8998   51.3287 H       1  ZINC000279593480    0.0600
     47 H47        -6.2012    4.8301   50.5984 H       1  ZINC000279593480    0.0700
     48 H48        -7.5989    4.1534   49.7285 H       1  ZINC000279593480    0.0700
@<TRIPOS>BOND
     1     1     2    1
     2     1    26    1
     3     1    27    1
     4     1    28    1
     5     2     3    1
     6     2    29    1
     7     2    30    1
     8     3     4    1
     9     3     5    1
    10     3    13    1
    11     5     6    1
    12     5    31    1
    13     5    32    1
    14     6    12   ar
    15     6     7   ar
    16     7     8   ar
    17     7    33    1
    18     8     9   ar
    19     8    34    1
    20     9    10    1
    21     9    11   ar
    22    11    12   ar
    23    11    35    1
    24    12    36    1
    25    13    14   am
    26    13    37    1
    27    14    15    2
    28    14    16   am
    29    16    17    1
    30    16    38    1
    31    17    18    1
    32    17    39    1
    33    17    40    1
    34    18    23    1
    35    18    19    1
    36    18    20    1
    37    19    41    1
    38    20    21    1
    39    20    42    1
    40    20    43    1
    41    21    22    1
    42    21    44    1
    43    21    45    1
    44    22    23    1
    45    23    24    1
    46    23    25    1
    47    25    46    1
    48    25    47    1
    49    25    48    1
@<TRIPOS>SUBSTRUCTURE
     1 ZINC000279593480        1 TEMP              0 ****  ****    0 ROOT


##########                                Name:    ZINC000350493047
##########                DOCK_Rotatable_Bonds:                   7
##########                         Heavy_Atoms:                  24
##########                    Molecular_Weight:             330.387
##########                DOCK_Rotatable_Bonds:                   7
##########                       Formal_Charge:          -0.0300002
##########                     HBond_Acceptors:                   7
##########                        HBond_Donors:                   3
##########                         Heavy_Atoms:                  24
##########                          Grid_Score:          -29.951963
##########                     Grid_vdw_energy:          -28.086519
##########                      Grid_es_energy:           -1.865445
##########           Internal_energy_repulsive:            5.673485

@<TRIPOS>MOLECULE
ZINC000350493047
 46 48 1 0 0
SMALL
USER_CHARGES


@<TRIPOS>ATOM
      1 C1         -6.2901    0.3457   50.8460 C.3     1  <0>        -0.1600
      2 C2         -5.8864    1.8181   50.7458 C.3     1  <0>         0.2600
      3 H3         -6.2166    2.3470   51.6399 H       1  <0>         0.1200
      4 N4         -6.5132    2.4170   49.5648 N.am    1  <0>        -0.7400
      5 C5         -6.8667    3.7174   49.5758 C.2     1  <0>         0.7100
      6 N6         -7.4418    4.2688   48.4887 N.am    1  <0>        -0.8600
      7 O7         -6.6669    4.3934   50.5666 O.2     1  <0>        -0.5900
      8 C8         -4.3877    1.9211   50.6258 C.2     1  <0>         0.1700
      9 N9         -3.5842    2.4667   51.4904 N.2     1  <0>        -0.3800
     10 O10        -2.4353    2.3919   51.1086 O.3     1  <0>         0.0900
     11 C11        -2.3932    1.7688   49.9205 C.2     1  <0>         0.2400
     12 C12        -1.1875    1.4785   49.1190 C.ar    1  <0>        -0.0800
     13 C13        -1.2564    1.4825   47.7239 C.ar    1  <0>        -0.0200
     14 C14        -0.1293    1.2111   46.9796 C.ar    1  <0>        -0.2200
     15 C15         1.0748    0.9333   47.6150 C.ar    1  <0>         0.1700
     16 O16         2.1832    0.6660   46.8779 O.3     1  <0>        -0.3000
     17 C17         2.9182    1.7865   46.3816 C.3     1  <0>         0.0800
     18 C18         3.5819    2.5187   47.5495 C.3     1  <0>        -0.1500
     19 C19         4.3689    3.7185   47.0181 C.3     1  <0>        -0.1200
     20 C20         5.4438    3.2324   46.0439 C.3     1  <0>        -0.1300
     21 C21         4.7800    2.5000   44.8760 C.3     1  <0>        -0.1200
     22 C22         3.9931    1.3003   45.4074 C.3     1  <0>        -0.1200
     23 C23         1.1475    0.9288   49.0025 C.ar    1  <0>        -0.1600
     24 C24         0.0264    1.2049   49.7539 C.ar    1  <0>        -0.0300
     25 N25        -3.6408    1.4613   49.6101 N.2     1  <0>        -0.4700
     26 H26        -5.9599   -0.1831   49.9519 H       1  <0>         0.0600
     27 H27        -5.8238   -0.0998   51.7246 H       1  <0>         0.0700
     28 H28        -7.3740    0.2713   50.9327 H       1  <0>         0.0800
     29 H29        -6.6737    1.8775   48.7748 H       1  <0>         0.4000
     30 H30        -7.6951    5.2051   48.4965 H       1  <0>         0.4000
     31 H31        -7.6024    3.7294   47.6987 H       1  <0>         0.4200
     32 H32        -2.1921    1.6976   47.2293 H       1  <0>         0.1400
     33 H33        -0.1817    1.2139   45.9009 H       1  <0>         0.1400
     34 H34         2.2401    2.4658   45.8650 H       1  <0>         0.0800
     35 H35         2.8161    2.8651   48.2436 H       1  <0>         0.0700
     36 H36         4.2601    1.8394   48.0661 H       1  <0>         0.0800
     37 H37         3.6908    4.3978   46.5015 H       1  <0>         0.0600
     38 H38         4.8418    4.2402   47.8501 H       1  <0>         0.0700
     39 H39         6.0044    4.0871   45.6653 H       1  <0>         0.0700
     40 H40         6.1219    2.5530   46.5604 H       1  <0>         0.0700
     41 H41         4.1019    3.1793   44.3595 H       1  <0>         0.0700
     42 H42         5.5458    2.1536   44.1820 H       1  <0>         0.0700
     43 H43         4.6712    0.6210   45.9239 H       1  <0>         0.0800
     44 H44         3.5202    0.7786   44.5753 H       1  <0>         0.0700
     45 H45         2.0854    0.7128   49.4926 H       1  <0>         0.1400
     46 H46         0.0838    1.2016   50.8324 H       1  <0>         0.1400
@<TRIPOS>BOND
     1     1     2    1
     2     1    26    1
     3     1    27    1
     4     1    28    1
     5     2     3    1
     6     2     4    1
     7     2     8    1
     8     4     5   am
     9     4    29    1
    10     5     6   am
    11     5     7    2
    12     6    30    1
    13     6    31    1
    14     8    25    1
    15     8     9    2
    16     9    10    1
    17    10    11    1
    18    11    12    1
    19    11    25    2
    20    12    24   ar
    21    12    13   ar
    22    13    14   ar
    23    13    32    1
    24    14    15   ar
    25    14    33    1
    26    15    16    1
    27    15    23   ar
    28    16    17    1
    29    17    22    1
    30    17    18    1
    31    17    34    1
    32    18    19    1
    33    18    35    1
    34    18    36    1
    35    19    20    1
    36    19    37    1
    37    19    38    1
    38    20    21    1
    39    20    39    1
    40    20    40    1
    41    21    22    1
    42    21    41    1
    43    21    42    1
    44    22    43    1
    45    22    44    1
    46    23    24   ar
    47    23    45    1
    48    24    46    1
@<TRIPOS>SUBSTRUCTURE
     1 <0>         1 TEMP              0 ****  ****    0 ROOT


##########                                Name:    ZINC000626935317
##########                DOCK_Rotatable_Bonds:                   6
##########                         Heavy_Atoms:                  25
##########                    Molecular_Weight:             366.441
##########                DOCK_Rotatable_Bonds:                   6
##########                       Formal_Charge:          -0.0200006
##########                     HBond_Acceptors:                   9
##########                        HBond_Donors:                   2
##########                         Heavy_Atoms:                  25
##########                          Grid_Score:          -29.918928
##########                     Grid_vdw_energy:          -30.326298
##########                      Grid_es_energy:            0.407369
##########           Internal_energy_repulsive:           11.592667

@<TRIPOS>MOLECULE
ZINC000626935317
 47 49 1 0 0
SMALL
USER_CHARGES


@<TRIPOS>ATOM
      1 C1          1.7950    2.4235   50.1546 C.3     1  ZINC000626935317    0.0900
      2 N2          0.4103    2.5468   50.6169 N.am    1  ZINC000626935317   -0.6200
      3 C3          0.0457    3.1245   51.7745 C.2     1  ZINC000626935317    0.5200
      4 O4          0.8117    3.6078   52.5811 O.2     1  ZINC000626935317   -0.5200
      5 C5         -1.4591    3.0843   51.9248 C.3     1  ZINC000626935317   -0.1500
      6 C6         -1.9742    2.7724   50.5005 C.3     1  ZINC000626935317   -0.1200
      7 H7         -2.2061    3.6900   49.9599 H       1  ZINC000626935317    0.1200
      8 C8         -3.1727    1.8601   50.5482 C.2     1  ZINC000626935317    0.5300
      9 O9         -3.0726    0.7078   50.1834 O.2     1  ZINC000626935317   -0.5200
     10 N10        -4.3558    2.3247   50.9964 N.am    1  ZINC000626935317   -0.7100
     11 C11        -5.5214    1.4383   51.0412 C.3     1  ZINC000626935317    0.1200
     12 C12        -6.5948    1.8825   52.0487 C.3     1  ZINC000626935317   -0.1600
     13 C13        -7.2061    2.7166   50.9105 C.3     1  ZINC000626935317    0.1200
     14 N14        -6.6596    4.0726   50.8178 N.am    1  ZINC000626935317   -1.1100
     15 S15        -7.4109    5.2053   49.8718 S.o2    1  ZINC000626935317    2.6100
     16 C16        -9.0775    5.3477   50.5738 C.3     1  ZINC000626935317   -0.6700
     17 O17        -6.6711    6.3973   50.0980 O.2     1  ZINC000626935317   -0.9500
     18 O18        -7.4618    4.6079   48.5835 O.2     1  ZINC000626935317   -0.9500
     19 C19        -6.5533    1.7214   49.9366 C.3     1  ZINC000626935317   -0.1600
     20 C20        -0.7575    2.0608   49.8725 C.3     1  ZINC000626935317    0.2000
     21 H21        -0.8497    0.9811   49.9904 H       1  ZINC000626935317    0.1100
     22 C22        -0.6410    2.4172   48.4130 C.ar    1  ZINC000626935317   -0.1600
     23 C23        -0.7165    1.4312   47.4414 C.ar    1  ZINC000626935317   -0.0500
     24 C24        -0.6046    1.8057   46.1109 C.ar    1  ZINC000626935317   -0.1700
     25 C25        -0.4229    3.1396   45.7998 C.ar    1  ZINC000626935317    0.1000
     26 N26        -0.3557    4.0511   46.7507 N.ar    1  ZINC000626935317   -0.4800
     27 C27        -0.4633    3.7322   48.0256 C.ar    1  ZINC000626935317    0.1200
     28 H28         2.0615    3.3022   49.5672 H       1  ZINC000626935317    0.0600
     29 H29         2.4598    2.3465   51.0150 H       1  ZINC000626935317    0.0800
     30 H30         1.8940    1.5303   49.5378 H       1  ZINC000626935317    0.0700
     31 H31        -1.7524    2.2959   52.6177 H       1  ZINC000626935317    0.1100
     32 H32        -1.8345    4.0501   52.2631 H       1  ZINC000626935317    0.1200
     33 H33        -4.4356    3.2460   51.2894 H       1  ZINC000626935317    0.4000
     34 H34        -5.2500    0.3861   51.1258 H       1  ZINC000626935317    0.1100
     35 H35        -7.2374    1.0704   52.3886 H       1  ZINC000626935317    0.1100
     36 H36        -6.2019    2.4841   52.8685 H       1  ZINC000626935317    0.0800
     37 H37        -8.2957    2.6972   50.8915 H       1  ZINC000626935317    0.1100
     38 H38        -5.8574    4.3070   51.3105 H       1  ZINC000626935317    0.4100
     39 H39        -9.0078    5.6673   51.6135 H       1  ZINC000626935317    0.1300
     40 H40        -9.6496    6.0813   50.0057 H       1  ZINC000626935317    0.1300
     41 H41        -9.5767    4.3799   50.5239 H       1  ZINC000626935317    0.1300
     42 H42        -6.1269    2.1928   49.0512 H       1  ZINC000626935317    0.0900
     43 H43        -7.1845    0.8652   49.6991 H       1  ZINC000626935317    0.1100
     44 H44        -0.8587    0.3960   47.7143 H       1  ZINC000626935317    0.1400
     45 H45        -0.6585    1.0639   45.3277 H       1  ZINC000626935317    0.1400
     46 H46        -0.3345    3.4395   44.7661 H       1  ZINC000626935317    0.1600
     47 H47        -0.4033    4.5062   48.7764 H       1  ZINC000626935317    0.1500
@<TRIPOS>BOND
     1     1     2    1
     2     1    28    1
     3     1    29    1
     4     1    30    1
     5     2    20    1
     6     2     3   am
     7     3     4    2
     8     3     5    1
     9     5     6    1
    10     5    31    1
    11     5    32    1
    12     6     7    1
    13     6     8    1
    14     6    20    1
    15     8     9    2
    16     8    10   am
    17    10    11    1
    18    10    33    1
    19    11    19    1
    20    11    12    1
    21    11    34    1
    22    12    13    1
    23    12    35    1
    24    12    36    1
    25    13    14    1
    26    13    19    1
    27    13    37    1
    28    14    15   am
    29    14    38    1
    30    15    16    1
    31    15    17    2
    32    15    18    2
    33    16    39    1
    34    16    40    1
    35    16    41    1
    36    19    42    1
    37    19    43    1
    38    20    21    1
    39    20    22    1
    40    22    27   ar
    41    22    23   ar
    42    23    24   ar
    43    23    44    1
    44    24    25   ar
    45    24    45    1
    46    25    26   ar
    47    25    46    1
    48    26    27   ar
    49    27    47    1
@<TRIPOS>SUBSTRUCTURE
     1 ZINC000626935317        1 TEMP              0 ****  ****    0 ROOT


##########                                Name:    ZINC000573650873
##########                DOCK_Rotatable_Bonds:                  10
##########                         Heavy_Atoms:                  28
##########                    Molecular_Weight:             418.843
##########                DOCK_Rotatable_Bonds:                  10
##########                       Formal_Charge:          -0.0500001
##########                     HBond_Acceptors:                   9
##########                        HBond_Donors:                   1
##########                         Heavy_Atoms:                  28
##########                          Grid_Score:          -29.917137
##########                     Grid_vdw_energy:          -29.336838
##########                      Grid_es_energy:           -0.580300
##########           Internal_energy_repulsive:           15.195847

@<TRIPOS>MOLECULE
ZINC000573650873
 50 51 1 0 0
SMALL
USER_CHARGES


@<TRIPOS>ATOM
      1 C1         -1.0038    6.2558   53.8567 C.3     1  ZINC000573650873   -0.1400
      2 C2         -0.4699    4.8229   53.8037 C.3     1  ZINC000573650873    0.0100
      3 C3          0.8170    4.7274   54.6257 C.3     1  ZINC000573650873   -0.1400
      4 C4         -1.5159    3.8672   54.3812 C.3     1  ZINC000573650873   -0.1500
      5 C5         -0.1814    4.4469   52.3732 C.2     1  ZINC000573650873   -0.0100
      6 C6          0.1508    3.2189   51.9118 C.2     1  ZINC000573650873   -0.1800
      7 C7          0.3121    3.4116   50.5114 C.2     1  ZINC000573650873   -0.0300
      8 C8          0.6789    2.3840   49.5067 C.2     1  ZINC000573650873    0.6000
      9 O9          1.8487    2.1451   49.2812 O.2     1  ZINC000573650873   -0.5100
     10 N10        -0.2853    1.7151   48.8439 N.am    1  ZINC000573650873   -0.5900
     11 C11        -1.6959    2.0030   49.1158 C.3     1  ZINC000573650873    0.1200
     12 C12        -2.1998    1.0797   50.2269 C.3     1  ZINC000573650873   -0.1000
     13 C13        -3.6565    1.3606   50.4914 C.ar    1  ZINC000573650873   -0.0800
     14 C14        -4.6080    0.3980   50.2101 C.ar    1  ZINC000573650873   -0.1000
     15 C15        -5.9442    0.6550   50.4525 C.ar    1  ZINC000573650873   -0.1100
     16 C16        -6.3294    1.8760   50.9768 C.ar    1  ZINC000573650873   -0.0400
     17 Cl17       -8.0075    2.1994   51.2821 Cl      1  ZINC000573650873   -0.0700
     18 C18        -5.3767    2.8390   51.2582 C.ar    1  ZINC000573650873   -0.1100
     19 C19        -4.0402    2.5786   51.0206 C.ar    1  ZINC000573650873   -0.1000
     20 C20         0.0770    0.7000   47.8517 C.3     1  ZINC000573650873    0.0700
     21 C21         0.7787    1.3706   46.6688 C.3     1  ZINC000573650873    0.0600
     22 H22         1.2737    2.2804   47.0083 H       1  ZINC000573650873    0.1400
     23 O23         1.7494    0.4760   46.1215 O.3     1  ZINC000573650873   -0.5200
     24 C24        -0.2538    1.7217   45.5957 C.3     1  ZINC000573650873    0.4300
     25 F25         0.3849    2.3522   44.5226 F       1  ZINC000573650873   -0.1700
     26 F26        -0.8755    0.5519   45.1463 F       1  ZINC000573650873   -0.1700
     27 F27        -1.2149    2.5822   46.1372 F       1  ZINC000573650873   -0.1800
     28 N28         0.0707    4.6796   50.2885 N.2     1  ZINC000573650873   -0.3400
     29 O29        -0.2093    5.2624   51.3101 O.3     1  ZINC000573650873    0.1300
     30 H30        -0.2586    6.9366   53.4453 H       1  ZINC000573650873    0.0600
     31 H31        -1.9207    6.3237   53.2712 H       1  ZINC000573650873    0.0600
     32 H32        -1.2126    6.5277   54.8914 H       1  ZINC000573650873    0.0700
     33 H33         0.6083    4.9994   55.6603 H       1  ZINC000573650873    0.0700
     34 H34         1.1973    3.7066   54.5879 H       1  ZINC000573650873    0.0600
     35 H35         1.5622    5.4083   54.2143 H       1  ZINC000573650873    0.0600
     36 H36        -2.4328    3.9352   53.7956 H       1  ZINC000573650873    0.0600
     37 H37        -1.1357    2.8465   54.3434 H       1  ZINC000573650873    0.0600
     38 H38        -1.7247    4.1392   55.4158 H       1  ZINC000573650873    0.0700
     39 H39         0.2667    2.3051   52.4755 H       1  ZINC000573650873    0.1800
     40 H40        -1.8006    3.0412   49.4308 H       1  ZINC000573650873    0.0900
     41 H41        -2.2814    1.8367   48.2116 H       1  ZINC000573650873    0.1000
     42 H42        -2.0803    0.0410   49.9183 H       1  ZINC000573650873    0.0800
     43 H43        -1.6246    1.2571   51.1356 H       1  ZINC000573650873    0.0800
     44 H44        -4.3071   -0.5550   49.8004 H       1  ZINC000573650873    0.1300
     45 H45        -6.6875   -0.0969   50.2323 H       1  ZINC000573650873    0.1300
     46 H46        -5.6768    3.7924   51.6672 H       1  ZINC000573650873    0.1300
     47 H47        -3.2964    3.3302   51.2405 H       1  ZINC000573650873    0.1300
     48 H48         0.7476   -0.0292   48.3061 H       1  ZINC000573650873    0.1000
     49 H49        -0.8240    0.1962   47.5015 H       1  ZINC000573650873    0.1200
     50 H50         1.4084   -0.4103   45.9385 H       1  ZINC000573650873    0.3900
@<TRIPOS>BOND
     1     1     2    1
     2     1    30    1
     3     1    31    1
     4     1    32    1
     5     2     3    1
     6     2     4    1
     7     2     5    1
     8     3    33    1
     9     3    34    1
    10     3    35    1
    11     4    36    1
    12     4    37    1
    13     4    38    1
    14     5    29    1
    15     5     6    2
    16     6     7    1
    17     6    39    1
    18     7     8    1
    19     7    28    2
    20     8     9    2
    21     8    10   am
    22    10    11    1
    23    10    20    1
    24    11    12    1
    25    11    40    1
    26    11    41    1
    27    12    13    1
    28    12    42    1
    29    12    43    1
    30    13    19   ar
    31    13    14   ar
    32    14    15   ar
    33    14    44    1
    34    15    16   ar
    35    15    45    1
    36    16    17    1
    37    16    18   ar
    38    18    19   ar
    39    18    46    1
    40    19    47    1
    41    20    21    1
    42    20    48    1
    43    20    49    1
    44    21    22    1
    45    21    23    1
    46    21    24    1
    47    23    50    1
    48    24    25    1
    49    24    26    1
    50    24    27    1
    51    28    29    1
@<TRIPOS>SUBSTRUCTURE
     1 ZINC000573650873        1 TEMP              0 ****  ****    0 ROOT


##########                                Name:    ZINC000443394081
##########                DOCK_Rotatable_Bonds:                   8
##########                         Heavy_Atoms:                  27
##########                    Molecular_Weight:             389.878
##########                DOCK_Rotatable_Bonds:                   8
##########                       Formal_Charge:          -0.0300003
##########                     HBond_Acceptors:                   6
##########                        HBond_Donors:                   1
##########                         Heavy_Atoms:                  27
##########                          Grid_Score:          -29.910063
##########                     Grid_vdw_energy:          -28.941954
##########                      Grid_es_energy:           -0.968108
##########           Internal_energy_repulsive:           29.685734

@<TRIPOS>MOLECULE
ZINC000443394081
 51 53 1 0 0
SMALL
USER_CHARGES


@<TRIPOS>ATOM
      1 C1          0.0481    4.3037   52.8192 C.3     1  ZINC000443394081    0.0200
      2 O2          0.5160    3.2228   52.0098 O.3     1  ZINC000443394081   -0.3000
      3 C3         -0.2919    2.8176   50.9938 C.ar    1  ZINC000443394081    0.1000
      4 C4         -1.5180    2.2461   51.2723 C.ar    1  ZINC000443394081   -0.1200
      5 C5         -2.3461    1.8311   50.2256 C.ar    1  ZINC000443394081   -0.1300
      6 C6         -3.6575    1.2202   50.5177 C.2     1  ZINC000443394081    0.5700
      7 O7         -3.9088    0.0997   50.1180 O.2     1  ZINC000443394081   -0.4900
      8 N8         -4.5765    1.9042   51.2275 N.am    1  ZINC000443394081   -0.6100
      9 C9         -4.4049    3.2640   51.7706 C.3     1  ZINC000443394081    0.0900
     10 C10        -5.8447    3.8152   51.9222 C.3     1  ZINC000443394081   -0.1300
     11 C11        -6.6177    2.5475   52.3722 C.3     1  ZINC000443394081   -0.1000
     12 H12        -6.5135    2.3931   53.4461 H       1  ZINC000443394081    0.0900
     13 C13        -8.0939    2.6468   51.9823 C.3     1  ZINC000443394081   -0.1500
     14 C14        -5.9187    1.4206   51.5831 C.3     1  ZINC000443394081    0.1400
     15 H15        -5.8333    0.5299   52.2056 H       1  ZINC000443394081    0.0800
     16 C16        -6.7180    1.0972   50.3192 C.3     1  ZINC000443394081    0.0600
     17 O17        -6.6026    2.1791   49.3928 O.3     1  ZINC000443394081   -0.5400
     18 C18        -1.9301    1.9964   48.9026 C.ar    1  ZINC000443394081   -0.1000
     19 C19        -0.7051    2.5670   48.6314 C.ar    1  ZINC000443394081   -0.1800
     20 C20         0.1149    2.9843   49.6705 C.ar    1  ZINC000443394081    0.1300
     21 O21         1.3209    3.5460   49.3982 O.3     1  ZINC000443394081   -0.3000
     22 C22         2.3355    2.6841   48.8786 C.3     1  ZINC000443394081    0.1000
     23 C23         3.0324    1.9851   50.0173 C.ar    1  ZINC000443394081   -0.0800
     24 C24         2.6052    0.7363   50.4270 C.ar    1  ZINC000443394081   -0.0800
     25 C25         3.2444    0.0950   51.4718 C.ar    1  ZINC000443394081   -0.1100
     26 C26         4.3108    0.7025   52.1075 C.ar    1  ZINC000443394081   -0.1000
     27 C27         4.7391    1.9517   51.6987 C.ar    1  ZINC000443394081   -0.1100
     28 C28         4.1039    2.5911   50.6494 C.ar    1  ZINC000443394081   -0.0300
     29 Cl29        4.6412    4.1598   50.1353 Cl      1  ZINC000443394081   -0.0700
     30 H30         0.7859    4.5261   53.5901 H       1  ZINC000443394081    0.1000
     31 H31        -0.1032    5.1851   52.1960 H       1  ZINC000443394081    0.0600
     32 H32        -0.8951    4.0243   53.2886 H       1  ZINC000443394081    0.0600
     33 H33        -1.8359    2.1198   52.2966 H       1  ZINC000443394081    0.1500
     34 H34        -3.9094    3.2253   52.7407 H       1  ZINC000443394081    0.0700
     35 H35        -3.8338    3.8805   51.0764 H       1  ZINC000443394081    0.0800
     36 H36        -5.8876    4.5908   52.6868 H       1  ZINC000443394081    0.0900
     37 H37        -6.2233    4.1861   50.9698 H       1  ZINC000443394081    0.0800
     38 H38        -8.1770    2.7707   50.9027 H       1  ZINC000443394081    0.0600
     39 H39        -8.6115    1.7363   52.2845 H       1  ZINC000443394081    0.0600
     40 H40        -8.5449    3.5039   52.4822 H       1  ZINC000443394081    0.0600
     41 H41        -6.3269    0.1867   49.8651 H       1  ZINC000443394081    0.0600
     42 H42        -7.7664    0.9520   50.5796 H       1  ZINC000443394081    0.0400
     43 H43        -6.9114    3.0277   49.7386 H       1  ZINC000443394081    0.3700
     44 H44        -2.5681    1.6765   48.0920 H       1  ZINC000443394081    0.1400
     45 H45        -0.3845    2.6937   47.6079 H       1  ZINC000443394081    0.1400
     46 H46         1.8809    1.9429   48.2211 H       1  ZINC000443394081    0.0800
     47 H47         3.0597    3.2732   48.3161 H       1  ZINC000443394081    0.0800
     48 H48         1.7715    0.2614   49.9311 H       1  ZINC000443394081    0.1400
     49 H49         2.9101   -0.8810   51.7915 H       1  ZINC000443394081    0.1300
     50 H50         4.8093    0.2014   52.9241 H       1  ZINC000443394081    0.1300
     51 H51         5.5725    2.4263   52.1955 H       1  ZINC000443394081    0.1400
@<TRIPOS>BOND
     1     1     2    1
     2     1    30    1
     3     1    31    1
     4     1    32    1
     5     2     3    1
     6     3    20   ar
     7     3     4   ar
     8     4     5   ar
     9     4    33    1
    10     5     6    1
    11     5    18   ar
    12     6     7    2
    13     6     8   am
    14     8    14    1
    15     8     9    1
    16     9    10    1
    17     9    34    1
    18     9    35    1
    19    10    11    1
    20    10    36    1
    21    10    37    1
    22    11    12    1
    23    11    13    1
    24    11    14    1
    25    13    38    1
    26    13    39    1
    27    13    40    1
    28    14    15    1
    29    14    16    1
    30    16    17    1
    31    16    41    1
    32    16    42    1
    33    17    43    1
    34    18    19   ar
    35    18    44    1
    36    19    20   ar
    37    19    45    1
    38    20    21    1
    39    21    22    1
    40    22    23    1
    41    22    46    1
    42    22    47    1
    43    23    28   ar
    44    23    24   ar
    45    24    25   ar
    46    24    48    1
    47    25    26   ar
    48    25    49    1
    49    26    27   ar
    50    26    50    1
    51    27    28   ar
    52    27    51    1
    53    28    29    1
@<TRIPOS>SUBSTRUCTURE
     1 ZINC000443394081        1 TEMP              0 ****  ****    0 ROOT


##########                                Name:    ZINC001078748831
##########                DOCK_Rotatable_Bonds:                   6
##########                         Heavy_Atoms:                  23
##########                    Molecular_Weight:             333.417
##########                DOCK_Rotatable_Bonds:                   6
##########                       Formal_Charge:           0.0299999
##########                     HBond_Acceptors:                   9
##########                        HBond_Donors:                   2
##########                         Heavy_Atoms:                  23
##########                          Grid_Score:          -29.905928
##########                     Grid_vdw_energy:          -30.364798
##########                      Grid_es_energy:            0.458870
##########           Internal_energy_repulsive:            4.678009

@<TRIPOS>MOLECULE
ZINC001078748831
 42 45 1 0 0
SMALL
USER_CHARGES


@<TRIPOS>ATOM
      1 C1          5.5227   -1.0792   52.5981 C.3     1  ZINC001078748831    0.1000
      2 N2          4.9445    0.2545   52.4153 N.pl3   1  ZINC001078748831   -0.1400
      3 N3          5.4253    1.3314   52.9261 N.2     1  ZINC001078748831   -0.2900
      4 C4          4.6748    2.3462   52.5704 C.2     1  ZINC001078748831    0.0400
      5 C5          3.6506    1.8030   51.7692 C.2     1  ZINC001078748831   -0.0500
      6 C6          2.5426    2.5327   51.1176 C.2     1  ZINC001078748831    0.6200
      7 O7          2.3730    3.7138   51.3502 O.2     1  ZINC001078748831   -0.5200
      8 N8          1.7204    1.8887   50.2658 N.am    1  ZINC001078748831   -0.7000
      9 C9          0.6212    2.6116   49.6213 C.3     1  ZINC001078748831    0.1500
     10 H10         0.9561    3.4942   49.0764 H       1  ZINC001078748831    0.1100
     11 C11        -0.5738    2.8784   50.5546 C.3     1  ZINC001078748831   -0.1800
     12 C12        -1.1442    1.5256   50.0909 C.3     1  ZINC001078748831    0.0800
     13 H13        -0.8226    0.6825   50.7023 H       1  ZINC001078748831    0.1000
     14 N14        -2.5952    1.5448   49.8623 N.3     1  ZINC001078748831   -0.6700
     15 C15        -3.3290    1.5161   51.1346 C.3     1  ZINC001078748831    0.1400
     16 C16        -4.8073    1.4152   50.8597 C.2     1  ZINC001078748831    0.0600
     17 N17        -5.4579    0.2874   50.7857 N.2     1  ZINC001078748831   -0.5700
     18 S18        -6.9569    0.6021   50.4900 S.3     1  ZINC001078748831    0.6800
     19 N19        -6.8671    2.1587   50.4399 N.2     1  ZINC001078748831   -0.5700
     20 C20        -5.6302    2.5070   50.6631 C.2     1  ZINC001078748831    0.0500
     21 C21        -0.3161    1.7116   48.8154 C.3     1  ZINC001078748831   -0.1000
     22 C22        -0.9614    2.1998   47.5180 C.3     1  ZINC001078748831   -0.1000
     23 C23         0.1189    1.3902   46.7780 C.3     1  ZINC001078748831   -0.1400
     24 C24         0.2167    0.5087   48.0362 C.3     1  ZINC001078748831   -0.1200
     25 N25         3.8926    0.5020   51.7184 N.2     1  ZINC001078748831   -0.2500
     26 H26         6.2511   -1.2705   51.8100 H       1  ZINC001078748831    0.1000
     27 H27         6.0156   -1.1316   53.5689 H       1  ZINC001078748831    0.1100
     28 H28         4.7316   -1.8276   52.5513 H       1  ZINC001078748831    0.1100
     29 H29         4.8127    3.3836   52.8369 H       1  ZINC001078748831    0.2100
     30 H30         1.8565    0.9466   50.0794 H       1  ZINC001078748831    0.4100
     31 H31        -0.3059    2.8996   51.6110 H       1  ZINC001078748831    0.0700
     32 H32        -1.1797    3.7331   50.2537 H       1  ZINC001078748831    0.1000
     33 H33        -2.8634    2.3442   49.3081 H       1  ZINC001078748831    0.3500
     34 H34        -3.0085    0.6541   51.7196 H       1  ZINC001078748831    0.1000
     35 H35        -3.1248    2.4300   51.6925 H       1  ZINC001078748831    0.0600
     36 H36        -5.2877    3.5310   50.6854 H       1  ZINC001078748831    0.2000
     37 H37        -1.9726    1.8234   47.3637 H       1  ZINC001078748831    0.1000
     38 H38        -0.8811    3.2763   47.3675 H       1  ZINC001078748831    0.0700
     39 H39        -0.2565    0.8604   45.9025 H       1  ZINC001078748831    0.0700
     40 H40         1.0258    1.9589   46.5724 H       1  ZINC001078748831    0.0800
     41 H41         1.2381    0.2343   48.2999 H       1  ZINC001078748831    0.0700
     42 H42        -0.4634   -0.3431   48.0277 H       1  ZINC001078748831    0.0900
@<TRIPOS>BOND
     1     1     2    1
     2     1    26    1
     3     1    27    1
     4     1    28    1
     5     2    25    1
     6     2     3    1
     7     3     4    2
     8     4     5    1
     9     4    29    1
    10     5     6    1
    11     5    25    2
    12     6     7    2
    13     6     8   am
    14     8     9    1
    15     8    30    1
    16     9    10    1
    17     9    21    1
    18     9    11    1
    19    11    12    1
    20    11    31    1
    21    11    32    1
    22    12    13    1
    23    12    14    1
    24    12    21    1
    25    14    15    1
    26    14    33    1
    27    15    16    1
    28    15    34    1
    29    15    35    1
    30    16    20    1
    31    16    17    2
    32    17    18    1
    33    18    19    1
    34    19    20    2
    35    20    36    1
    36    21    24    1
    37    21    22    1
    38    22    23    1
    39    22    37    1
    40    22    38    1
    41    23    24    1
    42    23    39    1
    43    23    40    1
    44    24    41    1
    45    24    42    1
@<TRIPOS>SUBSTRUCTURE
     1 ZINC001078748831        1 TEMP              0 ****  ****    0 ROOT


##########                                Name:    ZINC001070580102
##########                DOCK_Rotatable_Bonds:                   8
##########                         Heavy_Atoms:                  25
##########                    Molecular_Weight:              349.39
##########                DOCK_Rotatable_Bonds:                   8
##########                       Formal_Charge:          -0.0100003
##########                     HBond_Acceptors:                   9
##########                        HBond_Donors:                   3
##########                         Heavy_Atoms:                  25
##########                          Grid_Score:          -29.904556
##########                     Grid_vdw_energy:          -30.702967
##########                      Grid_es_energy:            0.798410
##########           Internal_energy_repulsive:           17.694138

@<TRIPOS>MOLECULE
ZINC001070580102
 48 50 1 0 0
SMALL
USER_CHARGES


@<TRIPOS>ATOM
      1 C1         -9.9678    0.8162   52.4264 C.3     1  ZINC001070580102   -0.0800
      2 C2         -8.5186    1.1063   52.1318 C.2     1  ZINC001070580102   -0.0100
      3 C3         -7.8114    2.1284   52.6373 C.2     1  ZINC001070580102   -0.1900
      4 C4         -6.4599    2.0034   52.0722 C.2     1  ZINC001070580102   -0.2500
      5 C5         -5.3057    2.8859   52.3194 C.2     1  ZINC001070580102    0.6000
      6 O6         -5.1412    3.3781   53.4192 O.2     1  ZINC001070580102   -0.5300
      7 N7         -4.4325    3.1474   51.3266 N.am    1  ZINC001070580102   -0.7200
      8 C8         -3.2863    4.0260   51.5720 C.3     1  ZINC001070580102    0.2000
      9 C9         -2.1827    3.6953   50.6003 C.2     1  ZINC001070580102    0.2600
     10 N10        -1.9299    2.5140   50.0979 N.2     1  ZINC001070580102   -0.5100
     11 C11        -0.8844    2.5871   49.2752 C.2     1  ZINC001070580102    0.2300
     12 C12        -0.2929    1.4339   48.5064 C.3     1  ZINC001070580102    0.1400
     13 H13        -0.9555    0.5713   48.5769 H       1  ZINC001070580102    0.0800
     14 C14         1.0755    1.0767   49.0929 C.3     1  ZINC001070580102    0.0800
     15 O15         1.6648    0.0325   48.3135 O.3     1  ZINC001070580102   -0.3800
     16 C16         1.8376    0.3706   46.9346 C.3     1  ZINC001070580102    0.0600
     17 C17         0.4770    0.7206   46.3262 C.3     1  ZINC001070580102    0.0200
     18 N18        -0.1321    1.8153   47.0957 N.3     1  ZINC001070580102   -0.5200
     19 C19        -1.4165    2.2202   46.5088 C.3     1  ZINC001070580102    0.0600
     20 C20        -1.2318    2.4896   45.0141 C.3     1  ZINC001070580102    0.0800
     21 O21        -0.2460    3.5079   44.8319 O.3     1  ZINC001070580102   -0.5700
     22 N22        -0.4557    3.8215   49.2424 N.2     1  ZINC001070580102   -0.2700
     23 N23        -1.2902    4.5637   50.0941 N.pl3   1  ZINC001070580102   -0.4700
     24 C24        -6.4973    0.8993   51.2718 C.2     1  ZINC001070580102    0.0900
     25 C25        -5.3453    0.3543   50.4675 C.3     1  ZINC001070580102   -0.0900
     26 O26        -7.7276    0.3802   51.3265 O.3     1  ZINC001070580102   -0.1700
     27 H27       -10.2773   -0.0766   51.8832 H       1  ZINC001070580102    0.0800
     28 H28       -10.0954    0.6529   53.4965 H       1  ZINC001070580102    0.0900
     29 H29       -10.5788    1.6625   52.1125 H       1  ZINC001070580102    0.0900
     30 H30        -8.1632    2.8880   53.3198 H       1  ZINC001070580102    0.1500
     31 H31        -4.5631    2.7539   50.4497 H       1  ZINC001070580102    0.4000
     32 H32        -3.5892    5.0645   51.4379 H       1  ZINC001070580102    0.1000
     33 H33        -2.9285    3.8806   52.5913 H       1  ZINC001070580102    0.1100
     34 H34         1.7208    1.9549   49.0721 H       1  ZINC001070580102    0.0700
     35 H35         0.9533    0.7383   50.1219 H       1  ZINC001070580102    0.1000
     36 H36         2.5051    1.2283   46.8511 H       1  ZINC001070580102    0.0600
     37 H37         2.2666   -0.4785   46.4026 H       1  ZINC001070580102    0.1000
     38 H38         0.6111    1.0341   45.2909 H       1  ZINC001070580102    0.1200
     39 H39        -0.1731   -0.1536   46.3613 H       1  ZINC001070580102    0.0400
     40 H40        -2.1465    1.4227   46.6468 H       1  ZINC001070580102    0.0500
     41 H41        -1.7709    3.1263   47.0002 H       1  ZINC001070580102    0.0800
     42 H42        -0.9060    1.5755   44.5177 H       1  ZINC001070580102    0.0500
     43 H43        -2.1780    2.8188   44.5846 H       1  ZINC001070580102    0.0600
     44 H44         0.1241    3.5419   43.9391 H       1  ZINC001070580102    0.3800
     45 H45        -1.2303    5.5130   50.2842 H       1  ZINC001070580102    0.4400
     46 H46        -4.7893   -0.3640   51.0700 H       1  ZINC001070580102    0.0900
     47 H47        -5.7275   -0.1397   49.5742 H       1  ZINC001070580102    0.0800
     48 H48        -4.6861    1.1721   50.1766 H       1  ZINC001070580102    0.1100
@<TRIPOS>BOND
     1     1     2    1
     2     1    27    1
     3     1    28    1
     4     1    29    1
     5     2    26    1
     6     2     3    2
     7     3     4    1
     8     3    30    1
     9     4     5    1
    10     4    24    2
    11     5     6    2
    12     5     7   am
    13     7     8    1
    14     7    31    1
    15     8     9    1
    16     8    32    1
    17     8    33    1
    18     9    23    1
    19     9    10    2
    20    10    11    1
    21    11    12    1
    22    11    22    2
    23    12    13    1
    24    12    18    1
    25    12    14    1
    26    14    15    1
    27    14    34    1
    28    14    35    1
    29    15    16    1
    30    16    17    1
    31    16    36    1
    32    16    37    1
    33    17    18    1
    34    17    38    1
    35    17    39    1
    36    18    19    1
    37    19    20    1
    38    19    40    1
    39    19    41    1
    40    20    21    1
    41    20    42    1
    42    20    43    1
    43    21    44    1
    44    22    23    1
    45    23    45    1
    46    24    25    1
    47    24    26    1
    48    25    46    1
    49    25    47    1
    50    25    48    1
@<TRIPOS>SUBSTRUCTURE
     1 ZINC001070580102        1 TEMP              0 ****  ****    0 ROOT


##########                                Name:    ZINC000787750060
##########                DOCK_Rotatable_Bonds:                   6
##########                         Heavy_Atoms:                  24
##########                    Molecular_Weight:             347.438
##########                DOCK_Rotatable_Bonds:                   6
##########                       Formal_Charge:           0.0200003
##########                     HBond_Acceptors:                   7
##########                        HBond_Donors:                   2
##########                         Heavy_Atoms:                  24
##########                          Grid_Score:          -29.901630
##########                     Grid_vdw_energy:          -29.389784
##########                      Grid_es_energy:           -0.511847
##########           Internal_energy_repulsive:            8.204180

@<TRIPOS>MOLECULE
ZINC000787750060
 45 47 1 0 0
SMALL
USER_CHARGES


@<TRIPOS>ATOM
      1 C1         -7.7472    2.0191   52.0819 C.3     1  ZINC000787750060   -0.1200
      2 C2         -6.2925    2.3365   51.8490 C.ar    1  ZINC000787750060   -0.0400
      3 C3         -5.7225    3.4412   52.4597 C.ar    1  ZINC000787750060   -0.1300
      4 C4         -4.3931    3.7410   52.2537 C.ar    1  ZINC000787750060   -0.0700
      5 C5         -3.6159    2.9275   51.4260 C.ar    1  ZINC000787750060   -0.1700
      6 C6         -2.1921    3.2422   51.2015 C.2     1  ZINC000787750060    0.5600
      7 O7         -1.8766    4.2961   50.6837 O.2     1  ZINC000787750060   -0.5200
      8 N8         -1.2410    2.3614   51.5705 N.am    1  ZINC000787750060   -0.7300
      9 C9          0.1727    2.6731   51.3460 C.3     1  ZINC000787750060    0.2100
     10 C10         0.5755    2.2144   49.9681 C.2     1  ZINC000787750060   -0.2800
     11 C11         1.5990    1.4105   49.6788 C.2     1  ZINC000787750060    0.0900
     12 N12         1.7487    1.1528   48.3916 N.2     1  ZINC000787750060   -0.5200
     13 C13         0.8984    1.7025   47.5812 C.2     1  ZINC000787750060    0.2300
     14 N14         0.8990    1.5462   46.2039 N.3     1  ZINC000787750060   -0.4500
     15 C15        -0.3013    0.8258   45.7549 C.3     1  ZINC000787750060    0.0200
     16 C16        -0.2895    0.7280   44.2272 C.3     1  ZINC000787750060    0.0600
     17 O17         0.9168    0.0862   43.8048 O.3     1  ZINC000787750060   -0.3800
     18 C18         2.1055    0.7616   44.2243 C.3     1  ZINC000787750060    0.0600
     19 C19         2.1180    0.8597   45.7521 C.3     1  ZINC000787750060    0.0300
     20 S20        -0.2286    2.6411   48.4599 S.3     1  ZINC000787750060    0.1700
     21 C21        -4.1965    1.8101   50.8100 C.ar    1  ZINC000787750060    0.1700
     22 O22        -3.4517    1.0127   50.0039 O.3     1  ZINC000787750060   -0.4700
     23 C23        -5.5342    1.5208   51.0322 C.ar    1  ZINC000787750060   -0.1200
     24 C24        -6.1643    0.3210   50.3730 C.3     1  ZINC000787750060   -0.1200
     25 H25        -7.8423    1.3671   52.9502 H       1  ZINC000787750060    0.0800
     26 H26        -8.2968    2.9435   52.2598 H       1  ZINC000787750060    0.0700
     27 H27        -8.1547    1.5173   51.2043 H       1  ZINC000787750060    0.0800
     28 H28        -6.3225    4.0708   53.0999 H       1  ZINC000787750060    0.1300
     29 H29        -3.9529    4.6037   52.7315 H       1  ZINC000787750060    0.1300
     30 H30        -1.4926    1.5211   51.9847 H       1  ZINC000787750060    0.4000
     31 H31         0.3253    3.7491   51.4298 H       1  ZINC000787750060    0.0900
     32 H32         0.7807    2.1607   52.0916 H       1  ZINC000787750060    0.0800
     33 H33         2.2530    1.0028   50.4354 H       1  ZINC000787750060    0.1800
     34 H34        -0.3060   -0.1763   46.1838 H       1  ZINC000787750060    0.0600
     35 H35        -1.1916    1.3650   46.0783 H       1  ZINC000787750060    0.1000
     36 H36        -1.1480    0.1453   43.8931 H       1  ZINC000787750060    0.1100
     37 H37        -0.3389    1.7287   43.7979 H       1  ZINC000787750060    0.0700
     38 H38         2.9792    0.2032   43.8883 H       1  ZINC000787750060    0.1100
     39 H39         2.1258    1.7633   43.7951 H       1  ZINC000787750060    0.0600
     40 H40         2.9937    1.4238   46.0734 H       1  ZINC000787750060    0.1000
     41 H41         2.1520   -0.1418   46.1809 H       1  ZINC000787750060    0.0700
     42 H42        -2.5075    1.2220   50.0074 H       1  ZINC000787750060    0.4000
     43 H43        -6.0566   -0.5483   51.0218 H       1  ZINC000787750060    0.0700
     44 H44        -7.2226    0.5159   50.1993 H       1  ZINC000787750060    0.0700
     45 H45        -5.6695    0.1277   49.4213 H       1  ZINC000787750060    0.0800
@<TRIPOS>BOND
     1     1     2    1
     2     1    25    1
     3     1    26    1
     4     1    27    1
     5     2    23   ar
     6     2     3   ar
     7     3     4   ar
     8     3    28    1
     9     4     5   ar
    10     4    29    1
    11     5     6    1
    12     5    21   ar
    13     6     7    2
    14     6     8   am
    15     8     9    1
    16     8    30    1
    17     9    10    1
    18     9    31    1
    19     9    32    1
    20    10    20    1
    21    10    11    2
    22    11    12    1
    23    11    33    1
    24    12    13    2
    25    13    14    1
    26    13    20    1
    27    14    19    1
    28    14    15    1
    29    15    16    1
    30    15    34    1
    31    15    35    1
    32    16    17    1
    33    16    36    1
    34    16    37    1
    35    17    18    1
    36    18    19    1
    37    18    38    1
    38    18    39    1
    39    19    40    1
    40    19    41    1
    41    21    22    1
    42    21    23   ar
    43    22    42    1
    44    23    24    1
    45    24    43    1
    46    24    44    1
    47    24    45    1
@<TRIPOS>SUBSTRUCTURE
     1 ZINC000787750060        1 TEMP              0 ****  ****    0 ROOT


##########                                Name:    ZINC000053543817
##########                DOCK_Rotatable_Bonds:                   7
##########                         Heavy_Atoms:                  25
##########                    Molecular_Weight:             350.458
##########                DOCK_Rotatable_Bonds:                   7
##########                       Formal_Charge:           0.0199998
##########                     HBond_Acceptors:                   6
##########                        HBond_Donors:                   2
##########                         Heavy_Atoms:                  25
##########                          Grid_Score:          -29.899590
##########                     Grid_vdw_energy:          -29.283012
##########                      Grid_es_energy:           -0.616577
##########           Internal_energy_repulsive:           35.135464

@<TRIPOS>MOLECULE
ZINC000053543817
 55 56 1 0 0
SMALL
USER_CHARGES


@<TRIPOS>ATOM
      1 C1        -11.2029    0.8818   53.6720 C.3     1  ZINC000053543817   -0.0700
      2 C2         -9.9003    1.6153   53.8629 C.2     1  ZINC000053543817   -0.0200
      3 C3         -8.9299    1.7506   52.9376 C.2     1  ZINC000053543817   -0.1800
      4 C4         -7.9034    2.5020   53.5375 C.2     1  ZINC000053543817   -0.1900
      5 C5         -8.3009    2.7862   54.7948 C.2     1  ZINC000053543817    0.0000
      6 C6         -7.4786    3.5836   55.7776 C.3     1  ZINC000053543817   -0.0300
      7 C7         -6.3888    4.3332   55.0021 C.3     1  ZINC000053543817   -0.0500
      8 C8         -7.0297    5.4431   54.1664 C.3     1  ZINC000053543817   -0.1500
      9 C9         -5.3930    4.9478   55.9879 C.3     1  ZINC000053543817   -0.1400
     10 C10        -5.6549    3.3578   54.0777 C.3     1  ZINC000053543817   -0.1200
     11 C11        -6.5905    2.9336   52.9382 C.3     1  ZINC000053543817    0.2200
     12 H12        -6.7529    3.7747   52.2643 H       1  ZINC000053543817    0.1000
     13 N13        -5.9941    1.8178   52.1997 N.am    1  ZINC000053543817   -0.7100
     14 C14        -5.2766    2.0551   51.0837 C.2     1  ZINC000053543817    0.5100
     15 O15        -5.1260    3.1923   50.6901 O.2     1  ZINC000053543817   -0.5300
     16 C16        -4.6617    0.9073   50.3250 C.3     1  ZINC000053543817    0.1400
     17 H17        -4.6868    1.1228   49.2569 H       1  ZINC000053543817    0.1200
     18 C18        -5.4527   -0.3718   50.6059 C.3     1  ZINC000053543817   -0.1600
     19 N19        -3.2727    0.7267   50.7543 N.am    1  ZINC000053543817   -0.7000
     20 C20        -2.2777    1.3584   50.1004 C.2     1  ZINC000053543817    0.6600
     21 O21        -2.5326    2.0764   49.1540 O.2     1  ZINC000053543817   -0.5700
     22 O22        -1.0014    1.1936   50.4959 O.3     1  ZINC000053543817   -0.3600
     23 C23         0.0265    1.8195   49.6835 C.3     1  ZINC000053543817    0.1400
     24 C24        -0.0625    1.2896   48.2510 C.3     1  ZINC000053543817   -0.1800
     25 C25        -0.1788    3.3356   49.6803 C.3     1  ZINC000053543817   -0.1400
     26 C26         1.4042    1.4927   50.2634 C.3     1  ZINC000053543817   -0.1800
     27 O27        -9.5126    2.2502   54.9836 O.3     1  ZINC000053543817   -0.1700
     28 H28       -11.7914    0.9422   54.5875 H       1  ZINC000053543817    0.0800
     29 H29       -11.7591    1.3362   52.8521 H       1  ZINC000053543817    0.0800
     30 H30       -11.0005   -0.1635   53.4386 H       1  ZINC000053543817    0.0800
     31 H31        -8.9386    1.3581   51.9315 H       1  ZINC000053543817    0.1400
     32 H32        -8.1181    4.2989   56.2949 H       1  ZINC000053543817    0.0900
     33 H33        -7.0171    2.9106   56.5002 H       1  ZINC000053543817    0.0900
     34 H34        -7.5511    6.1383   54.8244 H       1  ZINC000053543817    0.0600
     35 H35        -6.2551    5.9761   53.6150 H       1  ZINC000053543817    0.0600
     36 H36        -7.7395    5.0054   53.4645 H       1  ZINC000053543817    0.0600
     37 H37        -4.9367    4.1574   56.5837 H       1  ZINC000053543817    0.0600
     38 H38        -4.6182    5.4808   55.4368 H       1  ZINC000053543817    0.0600
     39 H39        -5.9149    5.6433   56.6453 H       1  ZINC000053543817    0.0600
     40 H40        -4.7730    3.8448   53.6617 H       1  ZINC000053543817    0.0800
     41 H41        -5.3509    2.4782   54.6452 H       1  ZINC000053543817    0.0700
     42 H42        -6.1156    0.9081   52.5139 H       1  ZINC000053543817    0.4000
     43 H43        -6.4862   -0.2374   50.2866 H       1  ZINC000053543817    0.0800
     44 H44        -5.0080   -1.2020   50.0573 H       1  ZINC000053543817    0.0800
     45 H45        -5.4276   -0.5873   51.6742 H       1  ZINC000053543817    0.0700
     46 H46        -3.0690    0.1525   51.5091 H       1  ZINC000053543817    0.4200
     47 H47        -1.0440    1.5225   47.8379 H       1  ZINC000053543817    0.0600
     48 H48         0.7092    1.7594   47.6411 H       1  ZINC000053543817    0.0700
     49 H49         0.0838    0.2094   48.2534 H       1  ZINC000053543817    0.0900
     50 H50        -0.1152    3.7131   50.7008 H       1  ZINC000053543817    0.0700
     51 H51         0.5930    3.8054   49.0703 H       1  ZINC000053543817    0.0800
     52 H52        -1.1602    3.5685   49.2671 H       1  ZINC000053543817    0.0700
     53 H53         1.5505    0.4125   50.2659 H       1  ZINC000053543817    0.0900
     54 H54         2.1759    1.9625   49.6537 H       1  ZINC000053543817    0.0700
     55 H55         1.4676    1.8701   51.2840 H       1  ZINC000053543817    0.0600
@<TRIPOS>BOND
     1     1     2    1
     2     1    28    1
     3     1    29    1
     4     1    30    1
     5     2    27    1
     6     2     3    2
     7     3     4    1
     8     3    31    1
     9     4    11    1
    10     4     5    2
    11     5     6    1
    12     5    27    1
    13     6     7    1
    14     6    32    1
    15     6    33    1
    16     7     8    1
    17     7     9    1
    18     7    10    1
    19     8    34    1
    20     8    35    1
    21     8    36    1
    22     9    37    1
    23     9    38    1
    24     9    39    1
    25    10    11    1
    26    10    40    1
    27    10    41    1
    28    11    12    1
    29    11    13    1
    30    13    14   am
    31    13    42    1
    32    14    15    2
    33    14    16    1
    34    16    17    1
    35    16    18    1
    36    16    19    1
    37    18    43    1
    38    18    44    1
    39    18    45    1
    40    19    20   am
    41    19    46    1
    42    20    21    2
    43    20    22    1
    44    22    23    1
    45    23    24    1
    46    23    25    1
    47    23    26    1
    48    24    47    1
    49    24    48    1
    50    24    49    1
    51    25    50    1
    52    25    51    1
    53    25    52    1
    54    26    53    1
    55    26    54    1
    56    26    55    1
@<TRIPOS>SUBSTRUCTURE
     1 ZINC000053543817        1 TEMP              0 ****  ****    0 ROOT


##########                                Name:    ZINC000482910431
##########                DOCK_Rotatable_Bonds:                   7
##########                         Heavy_Atoms:                  29
##########                    Molecular_Weight:             414.867
##########                DOCK_Rotatable_Bonds:                   7
##########                       Formal_Charge:          -0.0300001
##########                     HBond_Acceptors:                   8
##########                        HBond_Donors:                   2
##########                         Heavy_Atoms:                  29
##########                          Grid_Score:          -29.890293
##########                     Grid_vdw_energy:          -28.250822
##########                      Grid_es_energy:           -1.639472
##########           Internal_energy_repulsive:           12.092100

@<TRIPOS>MOLECULE
ZINC000482910431
 49 51 1 0 0
SMALL
USER_CHARGES


@<TRIPOS>ATOM
      1 C1        -15.1565    1.6709   43.1249 C.3     1  ZINC000482910431   -0.1500
      2 C2        -15.8754    2.1740   44.3782 C.3     1  ZINC000482910431    0.0800
      3 C3        -15.7408    3.6956   44.4672 C.3     1  ZINC000482910431   -0.1400
      4 C4        -17.3000    1.8109   44.3058 C.1     1  ZINC000482910431    0.2100
      5 N5        -18.3995    1.5307   44.2499 N.1     1  ZINC000482910431   -0.4300
      6 C6        -15.2576    1.5429   45.5992 C.ar    1  ZINC000482910431   -0.1000
      7 C7        -13.8940    1.6361   45.8089 C.ar    1  ZINC000482910431   -0.0900
      8 C8        -13.3247    1.0591   46.9272 C.ar    1  ZINC000482910431   -0.1200
      9 C9        -14.1233    0.3849   47.8415 C.ar    1  ZINC000482910431    0.1700
     10 N10       -13.5496   -0.2004   48.9759 N.am    1  ZINC000482910431   -0.6800
     11 C11       -13.6023    0.4364   50.1625 C.2     1  ZINC000482910431    0.7100
     12 O12       -14.1480    1.5196   50.2474 O.2     1  ZINC000482910431   -0.5500
     13 N13       -13.0498   -0.1272   51.2550 N.am    1  ZINC000482910431   -0.7300
     14 C14       -13.1054    0.5659   52.5444 C.3     1  ZINC000482910431    0.1400
     15 H15       -13.2211    1.6393   52.3948 H       1  ZINC000482910431    0.1400
     16 C16       -14.2629    0.0118   53.4071 C.3     1  ZINC000482910431   -0.1400
     17 C17       -13.6514    0.0628   54.8249 C.3     1  ZINC000482910431    0.0900
     18 N18       -12.1990   -0.0109   54.6276 N.am    1  ZINC000482910431   -0.5600
     19 C19       -11.2809   -0.3348   55.6333 C.ar    1  ZINC000482910431    0.2000
     20 C20       -11.3115   -1.5909   56.2242 C.ar    1  ZINC000482910431   -0.1600
     21 C21       -10.4048   -1.9095   57.2167 C.ar    1  ZINC000482910431   -0.0500
     22 C22        -9.4660   -0.9785   57.6228 C.ar    1  ZINC000482910431   -0.1000
     23 Cl23       -8.3282   -1.3824   58.8703 Cl      1  ZINC000482910431   -0.0500
     24 C24        -9.4321    0.2764   57.0348 C.ar    1  ZINC000482910431    0.1400
     25 F25        -8.5139    1.1841   57.4327 F       1  ZINC000482910431   -0.1200
     26 C26       -10.3345    0.5975   56.0373 C.ar    1  ZINC000482910431   -0.1900
     27 C27       -11.8620    0.2754   53.3558 C.2     1  ZINC000482910431    0.5000
     28 O28       -10.7285    0.2934   52.9246 O.2     1  ZINC000482910431   -0.4800
     29 C29       -15.4924    0.2930   47.6281 C.ar    1  ZINC000482910431   -0.1400
     30 C30       -16.0562    0.8767   46.5106 C.ar    1  ZINC000482910431   -0.0900
     31 H31       -14.1015    1.9398   43.1785 H       1  ZINC000482910431    0.0800
     32 H32       -15.2524    0.5869   43.0615 H       1  ZINC000482910431    0.0700
     33 H33       -15.6034    2.1274   42.2416 H       1  ZINC000482910431    0.0700
     34 H34       -16.1877    4.1521   43.5840 H       1  ZINC000482910431    0.0700
     35 H35       -16.2529    4.0540   45.3601 H       1  ZINC000482910431    0.0700
     36 H36       -14.6859    3.9645   44.5208 H       1  ZINC000482910431    0.0800
     37 H37       -13.2733    2.1603   45.0973 H       1  ZINC000482910431    0.1400
     38 H38       -12.2595    1.1320   47.0902 H       1  ZINC000482910431    0.1400
     39 H39       -13.1141   -1.0645   48.9081 H       1  ZINC000482910431    0.4100
     40 H40       -12.6154   -0.9918   51.1875 H       1  ZINC000482910431    0.4000
     41 H41       -15.1420    0.6526   53.3382 H       1  ZINC000482910431    0.1100
     42 H42       -14.5053   -1.0123   53.1234 H       1  ZINC000482910431    0.1000
     43 H43       -13.9182    0.9979   55.3173 H       1  ZINC000482910431    0.0900
     44 H44       -13.9956   -0.7867   55.4148 H       1  ZINC000482910431    0.1000
     45 H45       -12.0443   -2.3187   55.9083 H       1  ZINC000482910431    0.1700
     46 H46       -10.4294   -2.8865   57.6763 H       1  ZINC000482910431    0.1500
     47 H47       -10.3083    1.5749   55.5786 H       1  ZINC000482910431    0.1500
     48 H48       -16.1161   -0.2307   48.3374 H       1  ZINC000482910431    0.1300
     49 H49       -17.1210    0.8059   46.3442 H       1  ZINC000482910431    0.1300
@<TRIPOS>BOND
     1     1     2    1
     2     1    31    1
     3     1    32    1
     4     1    33    1
     5     2     3    1
     6     2     4    1
     7     2     6    1
     8     3    34    1
     9     3    35    1
    10     3    36    1
    11     4     5    3
    12     6    30   ar
    13     6     7   ar
    14     7     8   ar
    15     7    37    1
    16     8     9   ar
    17     8    38    1
    18     9    10    1
    19     9    29   ar
    20    10    11   am
    21    10    39    1
    22    11    12    2
    23    11    13   am
    24    13    14    1
    25    13    40    1
    26    14    15    1
    27    14    27    1
    28    14    16    1
    29    16    17    1
    30    16    41    1
    31    16    42    1
    32    17    18    1
    33    17    43    1
    34    17    44    1
    35    18    19    1
    36    18    27   am
    37    19    26   ar
    38    19    20   ar
    39    20    21   ar
    40    20    45    1
    41    21    22   ar
    42    21    46    1
    43    22    23    1
    44    22    24   ar
    45    24    25    1
    46    24    26   ar
    47    26    47    1
    48    27    28    2
    49    29    30   ar
    50    29    48    1
    51    30    49    1
@<TRIPOS>SUBSTRUCTURE
     1 ZINC000482910431        1 TEMP              0 ****  ****    0 ROOT


##########                                Name:    ZINC001074839487
##########                DOCK_Rotatable_Bonds:                   7
##########                         Heavy_Atoms:                  25
##########                    Molecular_Weight:             344.454
##########                DOCK_Rotatable_Bonds:                   7
##########                       Formal_Charge:          -0.0500005
##########                     HBond_Acceptors:                   5
##########                        HBond_Donors:                   1
##########                         Heavy_Atoms:                  25
##########                          Grid_Score:          -29.882242
##########                     Grid_vdw_energy:          -30.542042
##########                      Grid_es_energy:            0.659799
##########           Internal_energy_repulsive:           89.585587

@<TRIPOS>MOLECULE
ZINC001074839487
 53 55 1 0 0
SMALL
USER_CHARGES


@<TRIPOS>ATOM
      1 C1          3.1955    0.4128   40.4422 C.3     1  ZINC001074839487   -0.1500
      2 C2          2.5323    0.0357   41.7684 C.3     1  ZINC001074839487   -0.1300
      3 C3          2.3049    1.2982   42.6022 C.3     1  ZINC001074839487   -0.1100
      4 C4          1.6405    0.9212   43.9278 C.3     1  ZINC001074839487   -0.1400
      5 C5          1.4766    2.1556   44.7765 C.2     1  ZINC001074839487    0.5100
      6 O6          1.7645    3.2442   44.3257 O.2     1  ZINC001074839487   -0.5400
      7 N7          1.0101    2.0501   46.0366 N.am    1  ZINC001074839487   -0.7300
      8 C8          0.8492    3.2503   46.8610 C.3     1  ZINC001074839487    0.1400
      9 H9          1.1700    4.1251   46.2954 H       1  ZINC001074839487    0.0900
     10 C10        -0.6223    3.4071   47.2515 C.3     1  ZINC001074839487   -0.1500
     11 C11        -1.0790    2.1609   48.0164 C.3     1  ZINC001074839487    0.0700
     12 N12        -0.1729    1.9449   49.1526 N.am    1  ZINC001074839487   -0.6000
     13 C13        -0.6582    1.8186   50.4037 C.2     1  ZINC001074839487    0.5600
     14 O14         0.1018    1.6401   51.3353 O.2     1  ZINC001074839487   -0.5200
     15 C15        -2.1150    1.8971   50.6428 C.ar    1  ZINC001074839487   -0.1300
     16 C16        -2.6845    3.0794   51.1179 C.ar    1  ZINC001074839487   -0.1000
     17 C17        -4.0452    3.1472   51.3395 C.ar    1  ZINC001074839487   -0.1000
     18 C18        -4.8430    2.0475   51.0920 C.ar    1  ZINC001074839487   -0.1100
     19 C19        -6.3293    1.8118   51.2315 C.3     1  ZINC001074839487    0.0900
     20 O20        -6.5053    0.3833   51.2323 O.3     1  ZINC001074839487   -0.3600
     21 C21        -5.4072   -0.1272   50.4545 C.3     1  ZINC001074839487    0.0900
     22 C22        -4.2828    0.8687   50.6196 C.ar    1  ZINC001074839487   -0.1400
     23 C23        -2.9279    0.7900   50.3890 C.ar    1  ZINC001074839487   -0.0400
     24 C24         1.2724    1.8698   48.8993 C.3     1  ZINC001074839487    0.1500
     25 H25         1.4943    0.9799   48.3102 H       1  ZINC001074839487    0.0700
     26 C26         2.0240    1.8076   50.2306 C.3     1  ZINC001074839487   -0.1400
     27 C27         1.7028    3.1192   48.1245 C.3     1  ZINC001074839487   -0.1400
     28 H28         2.5488    1.0983   39.8946 H       1  ZINC001074839487    0.0500
     29 H29         3.3575   -0.4866   39.8483 H       1  ZINC001074839487    0.0500
     30 H30         4.1528    0.8956   40.6390 H       1  ZINC001074839487    0.0500
     31 H31         1.5750   -0.4471   41.5716 H       1  ZINC001074839487    0.0600
     32 H32         3.1791   -0.6498   42.3161 H       1  ZINC001074839487    0.0600
     33 H33         3.2623    1.7804   42.7998 H       1  ZINC001074839487    0.0700
     34 H34         1.6589    1.9841   42.0541 H       1  ZINC001074839487    0.0700
     35 H35         0.6622    0.4824   43.7319 H       1  ZINC001074839487    0.0900
     36 H36         2.2640    0.1986   44.4541 H       1  ZINC001074839487    0.0900
     37 H37         0.7811    1.1794   46.3975 H       1  ZINC001074839487    0.4000
     38 H38        -0.7388    4.2860   47.8854 H       1  ZINC001074839487    0.0800
     39 H39        -1.2268    3.5238   46.3521 H       1  ZINC001074839487    0.0800
     40 H40        -2.0950    2.3087   48.3823 H       1  ZINC001074839487    0.1200
     41 H41        -1.0488    1.2947   47.3553 H       1  ZINC001074839487    0.0700
     42 H42        -2.0614    3.9402   51.3113 H       1  ZINC001074839487    0.1500
     43 H43        -4.4868    4.0618   51.7067 H       1  ZINC001074839487    0.1400
     44 H44        -6.6904    2.2352   52.1688 H       1  ZINC001074839487    0.1000
     45 H45        -6.8605    2.2551   50.3893 H       1  ZINC001074839487    0.0800
     46 H46        -5.1023   -1.1036   50.8308 H       1  ZINC001074839487    0.1000
     47 H47        -5.6925   -0.2008   49.4051 H       1  ZINC001074839487    0.0800
     48 H48        -2.4941   -0.1263   50.0169 H       1  ZINC001074839487    0.1400
     49 H49         1.7977    0.8665   50.7320 H       1  ZINC001074839487    0.0800
     50 H50         3.0963    1.8722   50.0458 H       1  ZINC001074839487    0.0500
     51 H51         1.7134    2.6397   50.8624 H       1  ZINC001074839487    0.0700
     52 H52         2.7530    3.0311   47.8464 H       1  ZINC001074839487    0.0900
     53 H53         1.5643    4.0009   48.7501 H       1  ZINC001074839487    0.0900
@<TRIPOS>BOND
     1     1     2    1
     2     1    28    1
     3     1    29    1
     4     1    30    1
     5     2     3    1
     6     2    31    1
     7     2    32    1
     8     3     4    1
     9     3    33    1
    10     3    34    1
    11     4     5    1
    12     4    35    1
    13     4    36    1
    14     5     6    2
    15     5     7   am
    16     7     8    1
    17     7    37    1
    18     8     9    1
    19     8    27    1
    20     8    10    1
    21    10    11    1
    22    10    38    1
    23    10    39    1
    24    11    12    1
    25    11    40    1
    26    11    41    1
    27    12    13   am
    28    12    24    1
    29    13    14    2
    30    13    15    1
    31    15    23   ar
    32    15    16   ar
    33    16    17   ar
    34    16    42    1
    35    17    18   ar
    36    17    43    1
    37    18    22   ar
    38    18    19    1
    39    19    20    1
    40    19    44    1
    41    19    45    1
    42    20    21    1
    43    21    22    1
    44    21    46    1
    45    21    47    1
    46    22    23   ar
    47    23    48    1
    48    24    25    1
    49    24    26    1
    50    24    27    1
    51    26    49    1
    52    26    50    1
    53    26    51    1
    54    27    52    1
    55    27    53    1
@<TRIPOS>SUBSTRUCTURE
     1 ZINC001074839487        1 TEMP              0 ****  ****    0 ROOT


##########                                Name:    ZINC000191003171
##########                DOCK_Rotatable_Bonds:                   6
##########                         Heavy_Atoms:                  26
##########                    Molecular_Weight:             389.414
##########                DOCK_Rotatable_Bonds:                   6
##########                       Formal_Charge:          -0.0200002
##########                     HBond_Acceptors:                   8
##########                        HBond_Donors:                   1
##########                         Heavy_Atoms:                  26
##########                          Grid_Score:          -29.881147
##########                     Grid_vdw_energy:          -30.377024
##########                      Grid_es_energy:            0.495877
##########           Internal_energy_repulsive:           14.794717

@<TRIPOS>MOLECULE
ZINC000191003171
 45 46 1 0 0
SMALL
USER_CHARGES


@<TRIPOS>ATOM
      1 C1         -1.0969    1.3691   45.8563 C.3     1  ZINC000191003171   -0.1200
      2 C2         -0.4914    2.7064   45.5152 C.ar    1  ZINC000191003171   -0.0800
      3 C3         -0.0208    2.9463   44.2380 C.ar    1  ZINC000191003171   -0.0700
      4 C4          0.5348    4.1731   43.9251 C.ar    1  ZINC000191003171   -0.1800
      5 C5          1.0483    4.4346   42.5327 C.3     1  ZINC000191003171    0.5100
      6 F6          0.0380    5.0254   41.7663 F       1  ZINC000191003171   -0.1800
      7 F7          2.1495    5.2951   42.5957 F       1  ZINC000191003171   -0.1800
      8 F8          1.4343    3.2258   41.9433 F       1  ZINC000191003171   -0.1800
      9 C9          0.6187    5.1599   44.8893 C.ar    1  ZINC000191003171   -0.0800
     10 C10         0.1476    4.9200   46.1667 C.ar    1  ZINC000191003171   -0.1000
     11 C11        -0.4118    3.6950   46.4784 C.ar    1  ZINC000191003171   -0.0500
     12 C12        -0.9253    3.4336   47.8708 C.3     1  ZINC000191003171    0.0900
     13 N13         0.0955    2.7113   48.6417 N.3     1  ZINC000191003171   -0.6800
     14 C14        -0.1454    2.8405   50.0850 C.3     1  ZINC000191003171    0.1200
     15 H15         0.0757    3.8601   50.4005 H       1  ZINC000191003171    0.0600
     16 C16         0.7582    1.8651   50.8421 C.3     1  ZINC000191003171   -0.1400
     17 C17        -1.5881    2.5239   50.3838 C.ar    1  ZINC000191003171   -0.0100
     18 C18        -2.1128    1.2943   50.0323 C.ar    1  ZINC000191003171   -0.1300
     19 C19        -3.4363    1.0025   50.3059 C.ar    1  ZINC000191003171    0.0100
     20 C20        -4.2361    1.9399   50.9310 C.ar    1  ZINC000191003171   -0.7000
     21 S21        -5.9228    1.5676   51.2795 S.o2    1  ZINC000191003171    2.5000
     22 C22        -6.8639    2.6427   50.1618 C.3     1  ZINC000191003171   -0.6500
     23 O23        -6.0665    0.2058   50.9000 O.2     1  ZINC000191003171   -0.9300
     24 O24        -6.0998    1.9745   52.6293 O.2     1  ZINC000191003171   -0.9300
     25 C25        -3.7115    3.1718   51.2842 C.ar    1  ZINC000191003171    0.1900
     26 F26        -4.4925    4.0892   51.8955 F       1  ZINC000191003171   -0.1200
     27 C27        -2.3847    3.4610   51.0144 C.ar    1  ZINC000191003171   -0.1700
     28 H28        -2.1685    1.3944   45.6582 H       1  ZINC000191003171    0.0800
     29 H29        -0.6329    0.5940   45.2464 H       1  ZINC000191003171    0.0800
     30 H30        -0.9274    1.1519   46.9108 H       1  ZINC000191003171    0.0600
     31 H31        -0.0867    2.1754   43.4845 H       1  ZINC000191003171    0.1400
     32 H32         1.0527    6.1181   44.6449 H       1  ZINC000191003171    0.1400
     33 H33         0.2134    5.6909   46.9202 H       1  ZINC000191003171    0.1400
     34 H34        -1.1470    4.3818   48.3604 H       1  ZINC000191003171    0.0900
     35 H35        -1.8327    2.8320   47.8164 H       1  ZINC000191003171    0.0500
     36 H36         0.1366    1.7412   48.3673 H       1  ZINC000191003171    0.3500
     37 H37         0.5795    1.9609   51.9131 H       1  ZINC000191003171    0.0600
     38 H38         0.5370    0.8454   50.5266 H       1  ZINC000191003171    0.0700
     39 H39         1.8017    2.0941   50.6260 H       1  ZINC000191003171    0.0600
     40 H40        -1.4885    0.5612   49.5433 H       1  ZINC000191003171    0.1500
     41 H41        -3.8453    0.0416   50.0304 H       1  ZINC000191003171    0.1600
     42 H42        -6.6012    2.4123   49.1293 H       1  ZINC000191003171    0.1300
     43 H43        -7.9308    2.4767   50.3109 H       1  ZINC000191003171    0.1400
     44 H44        -6.6251    3.6849   50.3736 H       1  ZINC000191003171    0.1300
     45 H45        -1.9744    4.4213   51.2898 H       1  ZINC000191003171    0.1500
@<TRIPOS>BOND
     1     1     2    1
     2     1    28    1
     3     1    29    1
     4     1    30    1
     5     2    11   ar
     6     2     3   ar
     7     3     4   ar
     8     3    31    1
     9     4     5    1
    10     4     9   ar
    11     5     6    1
    12     5     7    1
    13     5     8    1
    14     9    10   ar
    15     9    32    1
    16    10    11   ar
    17    10    33    1
    18    11    12    1
    19    12    13    1
    20    12    34    1
    21    12    35    1
    22    13    14    1
    23    13    36    1
    24    14    15    1
    25    14    16    1
    26    14    17    1
    27    16    37    1
    28    16    38    1
    29    16    39    1
    30    17    27   ar
    31    17    18   ar
    32    18    19   ar
    33    18    40    1
    34    19    20   ar
    35    19    41    1
    36    20    21    1
    37    20    25   ar
    38    21    22    1
    39    21    23    2
    40    21    24    2
    41    22    42    1
    42    22    43    1
    43    22    44    1
    44    25    26    1
    45    25    27   ar
    46    27    45    1
@<TRIPOS>SUBSTRUCTURE
     1 ZINC000191003171        1 TEMP              0 ****  ****    0 ROOT


##########                                Name:    ZINC001013196242
##########                DOCK_Rotatable_Bonds:                   5
##########                         Heavy_Atoms:                  24
##########                    Molecular_Weight:              349.86
##########                DOCK_Rotatable_Bonds:                   5
##########                       Formal_Charge:        -3.05474e-07
##########                     HBond_Acceptors:                   6
##########                        HBond_Donors:                   1
##########                         Heavy_Atoms:                  24
##########                          Grid_Score:          -29.851341
##########                     Grid_vdw_energy:          -30.271446
##########                      Grid_es_energy:            0.420106
##########           Internal_energy_repulsive:           14.689692

@<TRIPOS>MOLECULE
ZINC001013196242
 48 51 1 0 0
SMALL
USER_CHARGES


@<TRIPOS>ATOM
      1 C1          0.9687    3.7678   50.9543 C.3     1  ZINC001013196242   -0.1600
      2 C2          0.5912    2.3316   50.5854 C.3     1  ZINC001013196242    0.1400
      3 H3          0.9720    1.6431   51.3397 H       1  ZINC001013196242    0.0800
      4 C4          1.1778    1.9732   49.2037 C.3     1  ZINC001013196242   -0.1400
      5 C5          0.0527    1.1211   48.5591 C.3     1  ZINC001013196242    0.1300
      6 H6          0.1053    0.0857   48.8955 H       1  ZINC001013196242    0.1100
      7 N7          0.1074    1.1987   47.0971 N.am    1  ZINC001013196242   -0.7200
      8 C8          1.1558    0.6730   46.4332 C.2     1  ZINC001013196242    0.5400
      9 O9          2.0531    0.1342   47.0459 O.2     1  ZINC001013196242   -0.5200
     10 C10         1.2129    0.7544   44.9295 C.3     1  ZINC001013196242   -0.1400
     11 C11        -0.0854    1.2793   44.2915 C.3     1  ZINC001013196242   -0.0800
     12 C12         0.5115    2.6837   44.4333 C.3     1  ZINC001013196242   -0.1600
     13 C13         0.0592    3.9803   43.7711 C.3     1  ZINC001013196242   -0.1700
     14 C14         0.0224    3.8421   45.2955 C.3     1  ZINC001013196242   -0.1400
     15 C15         1.8973    2.0300   44.4075 C.3     1  ZINC001013196242   -0.0800
     16 C16        -1.2178    1.8187   49.1058 C.3     1  ZINC001013196242    0.0800
     17 N17        -0.8705    2.2082   50.4881 N.am    1  ZINC001013196242   -0.6000
     18 C18        -1.7482    2.4167   51.4894 C.2     1  ZINC001013196242    0.6100
     19 O19        -1.3475    2.7377   52.5928 O.2     1  ZINC001013196242   -0.5400
     20 C20        -3.1862    2.2567   51.2493 C.2     1  ZINC001013196242   -0.0400
     21 C21        -3.8191    1.1061   50.8287 C.2     1  ZINC001013196242   -0.1400
     22 C22        -5.1835    1.3993   50.7316 C.2     1  ZINC001013196242   -0.1200
     23 Cl23       -6.4334    0.2979   50.2433 Cl      1  ZINC001013196242   -0.0400
     24 C24        -5.3562    2.6956   51.0868 C.2     1  ZINC001013196242    0.0400
     25 N25        -4.1502    3.2262   51.4086 N.pl3   1  ZINC001013196242   -0.4000
     26 C26        -3.9121    4.6043   51.8451 C.3     1  ZINC001013196242    0.0700
     27 H27         0.5466    4.0157   51.9282 H       1  ZINC001013196242    0.0700
     28 H28         2.0542    3.8592   50.9947 H       1  ZINC001013196242    0.0700
     29 H29         0.5743    4.4516   50.2026 H       1  ZINC001013196242    0.0600
     30 H30         1.3632    2.8736   48.6181 H       1  ZINC001013196242    0.0900
     31 H31         2.0907    1.3877   49.3124 H       1  ZINC001013196242    0.0900
     32 H32        -0.6110    1.6285   46.6070 H       1  ZINC001013196242    0.4000
     33 H33         1.5872   -0.1605   44.4702 H       1  ZINC001013196242    0.1000
     34 H34        -0.2223    0.9649   43.2568 H       1  ZINC001013196242    0.1000
     35 H35        -0.9711    1.1166   44.9056 H       1  ZINC001013196242    0.0700
     36 H36         0.8290    4.6218   43.3421 H       1  ZINC001013196242    0.1000
     37 H37        -0.8933    3.9696   43.2414 H       1  ZINC001013196242    0.0900
     38 H38        -0.9544    3.7403   45.7685 H       1  ZINC001013196242    0.0900
     39 H39         0.7681    4.3925   45.8693 H       1  ZINC001013196242    0.1000
     40 H40         2.6011    2.4692   45.1145 H       1  ZINC001013196242    0.0800
     41 H41         2.3124    1.9245   43.4051 H       1  ZINC001013196242    0.0900
     42 H42        -1.4528    2.7004   48.5097 H       1  ZINC001013196242    0.0800
     43 H43        -2.0595    1.1260   49.1085 H       1  ZINC001013196242    0.1000
     44 H44        -3.3498    0.1574   50.6141 H       1  ZINC001013196242    0.1600
     45 H45        -6.3003    3.2194   51.1131 H       1  ZINC001013196242    0.1800
     46 H46        -3.8887    4.6414   52.9342 H       1  ZINC001013196242    0.0800
     47 H47        -2.9577    4.9510   51.4491 H       1  ZINC001013196242    0.1000
     48 H48        -4.7129    5.2455   51.4769 H       1  ZINC001013196242    0.0900
@<TRIPOS>BOND
     1     1     2    1
     2     1    27    1
     3     1    28    1
     4     1    29    1
     5     2     3    1
     6     2    17    1
     7     2     4    1
     8     4     5    1
     9     4    30    1
    10     4    31    1
    11     5     6    1
    12     5     7    1
    13     5    16    1
    14     7     8   am
    15     7    32    1
    16     8     9    2
    17     8    10    1
    18    10    15    1
    19    10    11    1
    20    10    33    1
    21    11    12    1
    22    11    34    1
    23    11    35    1
    24    12    14    1
    25    12    13    1
    26    12    15    1
    27    13    14    1
    28    13    36    1
    29    13    37    1
    30    14    38    1
    31    14    39    1
    32    15    40    1
    33    15    41    1
    34    16    17    1
    35    16    42    1
    36    16    43    1
    37    17    18   am
    38    18    19    2
    39    18    20    1
    40    20    25    1
    41    20    21    2
    42    21    22    1
    43    21    44    1
    44    22    23    1
    45    22    24    2
    46    24    25    1
    47    24    45    1
    48    25    26    1
    49    26    46    1
    50    26    47    1
    51    26    48    1
@<TRIPOS>SUBSTRUCTURE
     1 ZINC001013196242        1 TEMP              0 ****  ****    0 ROOT


##########                                Name:    ZINC000486710336
##########                DOCK_Rotatable_Bonds:                   6
##########                         Heavy_Atoms:                  31
##########                    Molecular_Weight:             420.555
##########                DOCK_Rotatable_Bonds:                   6
##########                       Formal_Charge:         1.49012e-07
##########                     HBond_Acceptors:                   6
##########                        HBond_Donors:                   1
##########                         Heavy_Atoms:                  31
##########                          Grid_Score:          -29.844971
##########                     Grid_vdw_energy:          -29.093475
##########                      Grid_es_energy:           -0.751495
##########           Internal_energy_repulsive:           51.251038

@<TRIPOS>MOLECULE
ZINC000486710336
 63 67 1 0 0
SMALL
USER_CHARGES


@<TRIPOS>ATOM
      1 C1         -5.4109    4.8976   55.7968 C.3     1  ZINC000486710336    0.1000
      2 N2         -6.3683    4.2868   54.8713 N.pl3   1  ZINC000486710336   -0.3900
      3 N3         -6.7421    4.7908   53.6190 N.2     1  ZINC000486710336   -0.2800
      4 C4         -7.6143    3.9729   53.0876 C.2     1  ZINC000486710336    0.1000
      5 C5         -8.2739    4.1405   51.7430 C.3     1  ZINC000486710336   -0.0100
      6 C6         -8.3198    5.6365   51.3445 C.3     1  ZINC000486710336   -0.1200
      7 C7         -8.4294    5.5757   49.8006 C.3     1  ZINC000486710336   -0.1200
      8 C8         -7.5220    4.3931   49.4032 C.3     1  ZINC000486710336   -0.1200
      9 C9         -7.4232    3.4805   50.6383 C.3     1  ZINC000486710336   -0.1100
     10 C10        -7.8307    2.9180   53.9774 C.2     1  ZINC000486710336   -0.2600
     11 C11        -7.0475    3.1275   55.0721 C.2     1  ZINC000486710336    0.3000
     12 N12        -6.9643    2.3079   56.1941 N.am    1  ZINC000486710336   -0.6200
     13 C13        -8.0890    1.8661   56.7908 C.2     1  ZINC000486710336    0.5100
     14 O14        -9.1748    2.1840   56.3507 O.2     1  ZINC000486710336   -0.4800
     15 C15        -7.9997    0.9856   57.9933 C.2     1  ZINC000486710336    0.5300
     16 O16        -7.2695    1.2883   58.9142 O.2     1  ZINC000486710336   -0.5100
     17 N17        -8.7298   -0.1456   58.0560 N.am    1  ZINC000486710336   -0.5800
     18 C18        -9.6512   -0.6413   57.0177 C.3     1  ZINC000486710336    0.1000
     19 C19       -10.2818   -1.9459   57.5532 C.3     1  ZINC000486710336   -0.0600
     20 H20        -9.7361   -2.8167   57.1894 H       1  ZINC000486710336    0.1000
     21 C21       -11.7371   -2.0320   57.1716 C.ar    1  ZINC000486710336   -0.0700
     22 C22       -12.5860   -2.8713   57.8686 C.ar    1  ZINC000486710336   -0.1100
     23 C23       -13.9209   -2.9502   57.5186 C.ar    1  ZINC000486710336   -0.1200
     24 C24       -14.4071   -2.1895   56.4719 C.ar    1  ZINC000486710336   -0.1200
     25 C25       -13.5585   -1.3496   55.7753 C.ar    1  ZINC000486710336   -0.1200
     26 C26       -12.2245   -1.2674   56.1281 C.ar    1  ZINC000486710336   -0.1100
     27 C27       -10.1184   -1.7961   59.0969 C.3     1  ZINC000486710336   -0.0800
     28 H28       -10.1294   -2.7537   59.6172 H       1  ZINC000486710336    0.1100
     29 C29       -11.2376   -0.8641   59.5662 C.3     1  ZINC000486710336   -0.1100
     30 C30       -10.9372   -0.3203   60.9609 C.3     1  ZINC000486710336   -0.1200
     31 C31        -9.6442    0.5000   60.8996 C.3     1  ZINC000486710336   -0.1100
     32 C32        -8.4983   -0.4328   60.5076 C.3     1  ZINC000486710336   -0.1400
     33 C33        -8.7429   -1.1024   59.1656 C.3     1  ZINC000486710336    0.1400
     34 H34        -7.9522   -1.8325   58.9926 H       1  ZINC000486710336    0.0800
     35 H35        -4.4095    4.5245   55.5822 H       1  ZINC000486710336    0.0800
     36 H36        -5.4289    5.9807   55.6757 H       1  ZINC000486710336    0.1000
     37 H37        -5.6821    4.6420   56.8211 H       1  ZINC000486710336    0.0800
     38 H38        -9.2778    3.7161   51.7561 H       1  ZINC000486710336    0.0900
     39 H39        -9.1945    6.1243   51.7748 H       1  ZINC000486710336    0.0700
     40 H40        -7.4045    6.1452   51.6470 H       1  ZINC000486710336    0.0800
     41 H41        -9.4591    5.3848   49.4984 H       1  ZINC000486710336    0.0700
     42 H42        -8.0658    6.5019   49.3556 H       1  ZINC000486710336    0.0700
     43 H43        -7.9641    3.8469   48.5699 H       1  ZINC000486710336    0.0600
     44 H44        -6.5324    4.7577   49.1282 H       1  ZINC000486710336    0.0600
     45 H45        -6.3855    3.4024   50.9626 H       1  ZINC000486710336    0.0700
     46 H46        -7.8172    2.4915   50.4043 H       1  ZINC000486710336    0.0700
     47 H47        -8.4976    2.0826   53.8231 H       1  ZINC000486710336    0.1700
     48 H48        -6.0967    2.0548   56.5465 H       1  ZINC000486710336    0.4200
     49 H49       -10.4304    0.0974   56.8297 H       1  ZINC000486710336    0.0900
     50 H50        -9.1004   -0.8450   56.0995 H       1  ZINC000486710336    0.0800
     51 H51       -12.2060   -3.4656   58.6865 H       1  ZINC000486710336    0.1200
     52 H52       -14.5839   -3.6065   58.0629 H       1  ZINC000486710336    0.1200
     53 H53       -15.4500   -2.2518   56.1980 H       1  ZINC000486710336    0.1200
     54 H54       -13.9383   -0.7556   54.9572 H       1  ZINC000486710336    0.1200
     55 H55       -11.5614   -0.6112   55.5839 H       1  ZINC000486710336    0.1200
     56 H56       -11.3282   -0.0319   58.8681 H       1  ZINC000486710336    0.0700
     57 H57       -12.1774   -1.4156   59.5905 H       1  ZINC000486710336    0.0700
     58 H58       -11.7587    0.3161   61.2900 H       1  ZINC000486710336    0.0600
     59 H59       -10.8118   -1.1492   61.6575 H       1  ZINC000486710336    0.0600
     60 H60        -9.7456    1.2897   60.1553 H       1  ZINC000486710336    0.0500
     61 H61        -9.4418    0.9395   61.8764 H       1  ZINC000486710336    0.0600
     62 H62        -7.5731    0.1409   60.4546 H       1  ZINC000486710336    0.1000
     63 H63        -8.3935   -1.2082   61.2665 H       1  ZINC000486710336    0.0700
@<TRIPOS>BOND
     1     1     2    1
     2     1    35    1
     3     1    36    1
     4     1    37    1
     5     2    11    1
     6     2     3    1
     7     3     4    2
     8     4     5    1
     9     4    10    1
    10     5     9    1
    11     5     6    1
    12     5    38    1
    13     6     7    1
    14     6    39    1
    15     6    40    1
    16     7     8    1
    17     7    41    1
    18     7    42    1
    19     8     9    1
    20     8    43    1
    21     8    44    1
    22     9    45    1
    23     9    46    1
    24    10    11    2
    25    10    47    1
    26    11    12    1
    27    12    13   am
    28    12    48    1
    29    13    14    2
    30    13    15    1
    31    15    16    2
    32    15    17   am
    33    17    33    1
    34    17    18    1
    35    18    19    1
    36    18    49    1
    37    18    50    1
    38    19    20    1
    39    19    21    1
    40    19    27    1
    41    21    26   ar
    42    21    22   ar
    43    22    23   ar
    44    22    51    1
    45    23    24   ar
    46    23    52    1
    47    24    25   ar
    48    24    53    1
    49    25    26   ar
    50    25    54    1
    51    26    55    1
    52    27    28    1
    53    27    33    1
    54    27    29    1
    55    29    30    1
    56    29    56    1
    57    29    57    1
    58    30    31    1
    59    30    58    1
    60    30    59    1
    61    31    32    1
    62    31    60    1
    63    31    61    1
    64    32    33    1
    65    32    62    1
    66    32    63    1
    67    33    34    1
@<TRIPOS>SUBSTRUCTURE
     1 ZINC000486710336        1 TEMP              0 ****  ****    0 ROOT


##########                                Name:    ZINC000506156755
##########                DOCK_Rotatable_Bonds:                   7
##########                         Heavy_Atoms:                  30
##########                    Molecular_Weight:             400.434
##########                DOCK_Rotatable_Bonds:                   7
##########                       Formal_Charge:          -0.0200001
##########                     HBond_Acceptors:                   6
##########                        HBond_Donors:                   1
##########                         Heavy_Atoms:                  30
##########                          Grid_Score:          -29.833168
##########                     Grid_vdw_energy:          -29.866909
##########                      Grid_es_energy:            0.033741
##########           Internal_energy_repulsive:           10.866385

@<TRIPOS>MOLECULE
ZINC000506156755
 50 53 1 0 0
SMALL
USER_CHARGES


@<TRIPOS>ATOM
      1 C1          2.9178    2.8420   48.7136 C.3     1  ZINC000506156755   -0.1600
      2 C2          1.4578    3.2929   48.6374 C.3     1  ZINC000506156755    0.1900
      3 H3          1.4175    4.3535   48.3892 H       1  ZINC000506156755    0.1000
      4 N4          0.8094    3.0694   49.9320 N.am    1  ZINC000506156755   -0.7200
      5 C5         -0.4132    3.5836   50.1711 C.2     1  ZINC000506156755    0.5000
      6 O6         -0.9760    4.2327   49.3151 O.2     1  ZINC000506156755   -0.5200
      7 C7         -1.0809    3.3521   51.5021 C.3     1  ZINC000506156755    0.0900
      8 N8         -2.4488    2.8746   51.2857 N.am    1  ZINC000506156755   -0.5600
      9 C9         -3.5561    3.5899   51.5541 C.2     1  ZINC000506156755    0.5800
     10 O10        -3.5797    4.7164   52.0072 O.2     1  ZINC000506156755   -0.4600
     11 C11        -4.7391    2.7756   51.2044 C.ar    1  ZINC000506156755   -0.1400
     12 C12        -6.1076    2.9822   51.2635 C.ar    1  ZINC000506156755   -0.0400
     13 C13        -6.9724    1.9824   50.8452 C.ar    1  ZINC000506156755   -0.0900
     14 C14        -6.4785    0.7824   50.3704 C.ar    1  ZINC000506156755   -0.0900
     15 C15        -5.1112    0.5614   50.3056 C.ar    1  ZINC000506156755   -0.0400
     16 C16        -4.2351    1.5512   50.7201 C.ar    1  ZINC000506156755   -0.1400
     17 C17        -2.7629    1.6653   50.7871 C.2     1  ZINC000506156755    0.5800
     18 O18        -1.9696    0.8096   50.4503 O.2     1  ZINC000506156755   -0.4600
     19 C19         0.7423    2.5006   47.5737 C.ar    1  ZINC000506156755   -0.1200
     20 C20         0.5941    1.1343   47.7118 C.ar    1  ZINC000506156755   -0.0800
     21 C21        -0.0627    0.4067   46.7364 C.ar    1  ZINC000506156755   -0.1400
     22 C22        -0.5729    1.0444   45.6208 C.ar    1  ZINC000506156755   -0.0800
     23 C23        -0.4275    2.4108   45.4778 C.ar    1  ZINC000506156755   -0.1900
     24 C24         0.2265    3.1439   46.4575 C.ar    1  ZINC000506156755    0.1300
     25 O25         0.3705    4.4880   46.3194 O.3     1  ZINC000506156755   -0.2500
     26 C26         0.8139    4.9629   45.1260 C.ar    1  ZINC000506156755    0.0800
     27 C27         1.8226    4.2971   44.4444 C.ar    1  ZINC000506156755   -0.1400
     28 C28         2.2716    4.7821   43.2314 C.ar    1  ZINC000506156755   -0.1000
     29 C29         1.7168    5.9300   42.6964 C.ar    1  ZINC000506156755   -0.1200
     30 C30         0.7115    6.5954   43.3735 C.ar    1  ZINC000506156755   -0.1000
     31 C31         0.2549    6.1115   44.5841 C.ar    1  ZINC000506156755   -0.1200
     32 H32         3.4354    3.4152   49.4829 H       1  ZINC000506156755    0.0700
     33 H33         2.9581    1.7815   48.9618 H       1  ZINC000506156755    0.0600
     34 H34         3.4002    3.0084   47.7504 H       1  ZINC000506156755    0.0700
     35 H35         1.2601    2.5511   50.6171 H       1  ZINC000506156755    0.4000
     36 H36        -0.5202    2.6057   52.0649 H       1  ZINC000506156755    0.1300
     37 H37        -1.1066    4.2863   52.0630 H       1  ZINC000506156755    0.1300
     38 H38        -6.4993    3.9180   51.6340 H       1  ZINC000506156755    0.1400
     39 H39        -8.0395    2.1425   50.8912 H       1  ZINC000506156755    0.1400
     40 H40        -7.1621    0.0110   50.0479 H       1  ZINC000506156755    0.1400
     41 H41        -4.7307   -0.3782   49.9333 H       1  ZINC000506156755    0.1400
     42 H42         0.9921    0.6337   48.5821 H       1  ZINC000506156755    0.1300
     43 H43        -0.1771   -0.6616   46.8461 H       1  ZINC000506156755    0.1300
     44 H44        -1.0853    0.4738   44.8603 H       1  ZINC000506156755    0.1300
     45 H45        -0.8259    2.9084   44.6060 H       1  ZINC000506156755    0.1300
     46 H46         2.2565    3.4006   44.8620 H       1  ZINC000506156755    0.1300
     47 H47         3.0569    4.2643   42.7007 H       1  ZINC000506156755    0.1300
     48 H48         2.0695    6.3077   41.7480 H       1  ZINC000506156755    0.1300
     49 H49         0.2798    7.4919   42.9534 H       1  ZINC000506156755    0.1300
     50 H50        -0.5305    6.6314   45.1124 H       1  ZINC000506156755    0.1300
@<TRIPOS>BOND
     1     1     2    1
     2     1    32    1
     3     1    33    1
     4     1    34    1
     5     2     3    1
     6     2     4    1
     7     2    19    1
     8     4     5   am
     9     4    35    1
    10     5     6    2
    11     5     7    1
    12     7     8    1
    13     7    36    1
    14     7    37    1
    15     8    17   am
    16     8     9   am
    17     9    10    2
    18     9    11    1
    19    11    16   ar
    20    11    12   ar
    21    12    13   ar
    22    12    38    1
    23    13    14   ar
    24    13    39    1
    25    14    15   ar
    26    14    40    1
    27    15    16   ar
    28    15    41    1
    29    16    17    1
    30    17    18    2
    31    19    24   ar
    32    19    20   ar
    33    20    21   ar
    34    20    42    1
    35    21    22   ar
    36    21    43    1
    37    22    23   ar
    38    22    44    1
    39    23    24   ar
    40    23    45    1
    41    24    25    1
    42    25    26    1
    43    26    31   ar
    44    26    27   ar
    45    27    28   ar
    46    27    46    1
    47    28    29   ar
    48    28    47    1
    49    29    30   ar
    50    29    48    1
    51    30    31   ar
    52    30    49    1
    53    31    50    1
@<TRIPOS>SUBSTRUCTURE
     1 ZINC000506156755        1 TEMP              0 ****  ****    0 ROOT


##########                                Name:    ZINC000461678839
##########                DOCK_Rotatable_Bonds:                   6
##########                         Heavy_Atoms:                  28
##########                    Molecular_Weight:             404.939
##########                DOCK_Rotatable_Bonds:                   6
##########                       Formal_Charge:          -0.0200003
##########                     HBond_Acceptors:                   7
##########                        HBond_Donors:                   0
##########                         Heavy_Atoms:                  28
##########                          Grid_Score:          -29.806591
##########                     Grid_vdw_energy:          -28.829893
##########                      Grid_es_energy:           -0.976697
##########           Internal_energy_repulsive:           12.772691

@<TRIPOS>MOLECULE
ZINC000461678839
 57 60 1 0 0
SMALL
USER_CHARGES


@<TRIPOS>ATOM
      1 C1          3.2316    3.2528   49.6559 C.3     1  ZINC000461678839   -0.1500
      2 C2          2.0211    2.3956   49.2806 C.3     1  ZINC000461678839   -0.0900
      3 H3          2.3694    1.4309   48.9116 H       1  ZINC000461678839    0.0700
      4 C4          1.2275    3.1066   48.1615 C.3     1  ZINC000461678839   -0.1100
      5 C5          0.3217    2.1053   47.4956 C.3     1  ZINC000461678839   -0.1200
      6 C6         -1.0797    2.0495   48.1296 C.3     1  ZINC000461678839    0.0600
      7 N7         -1.0561    2.0940   49.6082 N.3     1  ZINC000461678839   -0.4600
      8 C8         -2.2964    1.7700   50.1347 C.2     1  ZINC000461678839    0.3700
      9 N9         -2.9265    0.6270   49.9999 N.2     1  ZINC000461678839   -0.3100
     10 N10        -4.0522    0.6734   50.6187 N.2     1  ZINC000461678839   -0.2500
     11 C11        -4.2057    1.8391   51.1800 C.2     1  ZINC000461678839    0.1700
     12 C12        -5.3901    2.2882   51.9966 C.3     1  ZINC000461678839    0.1500
     13 O13        -6.4988    1.4230   51.7434 O.3     1  ZINC000461678839   -0.3100
     14 C14        -7.6212    1.6258   52.4827 C.ar    1  ZINC000461678839    0.1400
     15 C15        -7.6814    2.6839   53.3778 C.ar    1  ZINC000461678839   -0.2000
     16 C16        -8.8230    2.8884   54.1284 C.ar    1  ZINC000461678839   -0.0700
     17 C17        -9.9057    2.0384   53.9882 C.ar    1  ZINC000461678839   -0.0700
     18 Cl18      -11.3390    2.2971   54.9329 Cl      1  ZINC000461678839   -0.0700
     19 C19        -9.8478    0.9828   53.0956 C.ar    1  ZINC000461678839   -0.0700
     20 C20        -8.7101    0.7784   52.3391 C.ar    1  ZINC000461678839   -0.1400
     21 N21        -3.0904    2.5774   50.8961 N.pl3   1  ZINC000461678839   -0.4600
     22 C22        -2.8099    3.9529   51.3151 C.3     1  ZINC000461678839    0.1200
     23 C23        -2.5820    3.9890   52.8275 C.3     1  ZINC000461678839   -0.1400
     24 H24        -3.3838    3.4628   53.3458 H       1  ZINC000461678839    0.0900
     25 C25        -2.4829    5.4512   53.3259 C.3     1  ZINC000461678839   -0.1500
     26 C26        -1.3343    5.3637   54.3629 C.3     1  ZINC000461678839    0.0500
     27 O27        -0.4180    4.4175   53.7716 O.3     1  ZINC000461678839   -0.3700
     28 C28        -1.2149    3.3724   53.1819 C.3     1  ZINC000461678839    0.0400
     29 C29        -0.0171    1.2825   50.1953 C.3     1  ZINC000461678839    0.0700
     30 C30         1.2017    2.1831   50.4685 C.3     1  ZINC000461678839   -0.1100
     31 H31         3.8071    2.7486   50.4323 H       1  ZINC000461678839    0.0500
     32 H32         3.8589    3.4004   48.7767 H       1  ZINC000461678839    0.0500
     33 H33         2.8912    4.2199   50.0260 H       1  ZINC000461678839    0.0600
     34 H34         0.6298    3.9102   48.5917 H       1  ZINC000461678839    0.0700
     35 H35         1.9202    3.5173   47.4269 H       1  ZINC000461678839    0.0700
     36 H36         0.2206    2.3691   46.4428 H       1  ZINC000461678839    0.0800
     37 H37         0.7783    1.1180   47.5655 H       1  ZINC000461678839    0.0700
     38 H38        -1.6629    2.8946   47.7637 H       1  ZINC000461678839    0.0700
     39 H39        -1.5692    1.1278   47.8154 H       1  ZINC000461678839    0.0500
     40 H40        -5.1357    2.2524   53.0558 H       1  ZINC000461678839    0.0800
     41 H41        -5.6553    3.3089   51.7209 H       1  ZINC000461678839    0.1000
     42 H42        -6.8363    3.3472   53.4881 H       1  ZINC000461678839    0.1400
     43 H43        -8.8703    3.7121   54.8254 H       1  ZINC000461678839    0.1400
     44 H44       -10.6940    0.3205   52.9872 H       1  ZINC000461678839    0.1400
     45 H45        -8.6652   -0.0457   51.6425 H       1  ZINC000461678839    0.1400
     46 H46        -1.9169    4.3134   50.8044 H       1  ZINC000461678839    0.1100
     47 H47        -3.6565    4.5902   51.0598 H       1  ZINC000461678839    0.1000
     48 H48        -2.2193    6.1235   52.5093 H       1  ZINC000461678839    0.0800
     49 H49        -3.4127    5.7642   53.8009 H       1  ZINC000461678839    0.0900
     50 H50        -0.8554    6.3349   54.4881 H       1  ZINC000461678839    0.1000
     51 H51        -1.7066    4.9922   55.3176 H       1  ZINC000461678839    0.0600
     52 H52        -1.3458    2.5588   53.8954 H       1  ZINC000461678839    0.0500
     53 H53        -0.7305    3.0017   52.2786 H       1  ZINC000461678839    0.1100
     54 H54        -0.3726    0.8510   51.1309 H       1  ZINC000461678839    0.0900
     55 H55         0.2610    0.4861   49.5051 H       1  ZINC000461678839    0.0600
     56 H56         1.8162    1.7191   51.2400 H       1  ZINC000461678839    0.0700
     57 H57         0.8514    3.1485   50.8337 H       1  ZINC000461678839    0.0700
@<TRIPOS>BOND
     1     1     2    1
     2     1    31    1
     3     1    32    1
     4     1    33    1
     5     2     3    1
     6     2    30    1
     7     2     4    1
     8     4     5    1
     9     4    34    1
    10     4    35    1
    11     5     6    1
    12     5    36    1
    13     5    37    1
    14     6     7    1
    15     6    38    1
    16     6    39    1
    17     7     8    1
    18     7    29    1
    19     8    21    1
    20     8     9    2
    21     9    10    1
    22    10    11    2
    23    11    12    1
    24    11    21    1
    25    12    13    1
    26    12    40    1
    27    12    41    1
    28    13    14    1
    29    14    20   ar
    30    14    15   ar
    31    15    16   ar
    32    15    42    1
    33    16    17   ar
    34    16    43    1
    35    17    18    1
    36    17    19   ar
    37    19    20   ar
    38    19    44    1
    39    20    45    1
    40    21    22    1
    41    22    23    1
    42    22    46    1
    43    22    47    1
    44    23    24    1
    45    23    28    1
    46    23    25    1
    47    25    26    1
    48    25    48    1
    49    25    49    1
    50    26    27    1
    51    26    50    1
    52    26    51    1
    53    27    28    1
    54    28    52    1
    55    28    53    1
    56    29    30    1
    57    29    54    1
    58    29    55    1
    59    30    56    1
    60    30    57    1
@<TRIPOS>SUBSTRUCTURE
     1 ZINC000461678839        1 TEMP              0 ****  ****    0 ROOT


##########                                Name:    ZINC000285228948
##########                DOCK_Rotatable_Bonds:                   8
##########                         Heavy_Atoms:                  23
##########                    Molecular_Weight:             339.822
##########                DOCK_Rotatable_Bonds:                   8
##########                       Formal_Charge:           0.0299997
##########                     HBond_Acceptors:                   7
##########                        HBond_Donors:                   3
##########                         Heavy_Atoms:                  23
##########                          Grid_Score:          -29.780458
##########                     Grid_vdw_energy:          -27.915600
##########                      Grid_es_energy:           -1.864859
##########           Internal_energy_repulsive:           20.753696

@<TRIPOS>MOLECULE
ZINC000285228948
 45 46 1 0 0
SMALL
USER_CHARGES


@<TRIPOS>ATOM
      1 C1          0.7693    1.6086   50.8740 C.3     1  <0>        -0.1600
      2 C2         -0.6411    1.4869   50.2935 C.3     1  <0>         0.1800
      3 H3         -1.0089    0.4716   50.4424 H       1  <0>         0.1100
      4 C4         -0.6061    1.7974   48.8193 C.ar    1  <0>        -0.0900
      5 C5         -0.5316    0.7692   47.8981 C.ar    1  <0>        -0.1000
      6 C6         -0.4994    1.0534   46.5460 C.ar    1  <0>        -0.1100
      7 C7         -0.5417    2.3672   46.1143 C.ar    1  <0>        -0.0300
      8 Cl8        -0.5018    2.7249   44.4160 Cl      1  <0>        -0.0700
      9 C9         -0.6162    3.3958   47.0366 C.ar    1  <0>        -0.1100
     10 C10        -0.6541    3.1101   48.3884 C.ar    1  <0>        -0.0900
     11 N11        -1.5312    2.4330   50.9709 N.am    1  <0>        -0.6100
     12 C12        -0.9688    3.5156   51.7820 C.3     1  <0>         0.0600
     13 C13        -2.8674    2.3075   50.8478 C.2     1  <0>         0.5200
     14 O14        -3.3330    1.4121   50.1749 O.2     1  <0>        -0.5200
     15 C15        -3.7831    3.2796   51.5459 C.3     1  <0>         0.0300
     16 N16        -5.1795    2.8753   51.3345 N.3     1  <0>        -0.4900
     17 C17        -6.0619    4.0619   51.1957 C.3     1  <0>         0.0400
     18 C18        -7.4692    3.4962   51.5120 C.3     1  <0>        -0.1400
     19 C19        -7.1869    2.4790   52.6414 C.3     1  <0>         0.1100
     20 O20        -7.4352    3.0728   53.9173 O.3     1  <0>        -0.5400
     21 C21        -8.0396    1.2493   52.4631 C.2     1  <0>         0.5000
     22 N22        -7.9282    0.5087   51.3425 N.am    1  <0>        -0.8500
     23 O23        -8.8260    0.9260   53.3279 O.2     1  <0>        -0.5200
     24 C24        -5.6955    2.1230   52.4987 C.3     1  <0>         0.0600
     25 H25         1.4316    0.9046   50.3700 H       1  <0>         0.0700
     26 H26         1.1371    2.6238   50.7251 H       1  <0>         0.0600
     27 H27         0.7441    1.3840   51.9403 H       1  <0>         0.0700
     28 H28        -0.4982   -0.2562   48.2353 H       1  <0>         0.1400
     29 H29        -0.4409    0.2501   45.8265 H       1  <0>         0.1300
     30 H30        -0.6489    4.4215   46.7003 H       1  <0>         0.1400
     31 H31        -0.7126    3.9129   49.1084 H       1  <0>         0.1300
     32 H32        -0.7712    4.3798   51.1478 H       1  <0>         0.0600
     33 H33        -1.6786    3.7919   52.5617 H       1  <0>         0.0800
     34 H34        -0.0382    3.1806   52.2401 H       1  <0>         0.0800
     35 H35        -3.5634    3.2829   52.6136 H       1  <0>         0.1100
     36 H36        -3.6289    4.2795   51.1402 H       1  <0>         0.0700
     37 H37        -5.7864    4.8326   51.9155 H       1  <0>         0.0400
     38 H38        -6.0241    4.4526   50.1787 H       1  <0>         0.1200
     39 H39        -8.1331    4.2867   51.8620 H       1  <0>         0.0900
     40 H40        -7.8893    2.9965   50.6391 H       1  <0>         0.0900
     41 H41        -6.6346    3.3388   54.3898 H       1  <0>         0.3800
     42 H42        -8.4778   -0.2821   51.2272 H       1  <0>         0.4000
     43 H43        -7.2983    0.7667   50.6513 H       1  <0>         0.4100
     44 H44        -5.5839    1.0523   52.3281 H       1  <0>         0.1100
     45 H45        -5.1559    2.4164   53.3992 H       1  <0>         0.0700
@<TRIPOS>BOND
     1     1     2    1
     2     1    25    1
     3     1    26    1
     4     1    27    1
     5     2     3    1
     6     2     4    1
     7     2    11    1
     8     4    10   ar
     9     4     5   ar
    10     5     6   ar
    11     5    28    1
    12     6     7   ar
    13     6    29    1
    14     7     8    1
    15     7     9   ar
    16     9    10   ar
    17     9    30    1
    18    10    31    1
    19    11    12    1
    20    11    13   am
    21    12    32    1
    22    12    33    1
    23    12    34    1
    24    13    14    2
    25    13    15    1
    26    15    16    1
    27    15    35    1
    28    15    36    1
    29    16    24    1
    30    16    17    1
    31    17    18    1
    32    17    37    1
    33    17    38    1
    34    18    19    1
    35    18    39    1
    36    18    40    1
    37    19    20    1
    38    19    21    1
    39    19    24    1
    40    20    41    1
    41    21    22   am
    42    21    23    2
    43    22    42    1
    44    22    43    1
    45    24    44    1
    46    24    45    1
@<TRIPOS>SUBSTRUCTURE
     1 <0>         1 TEMP              0 ****  ****    0 ROOT


##########                                Name:    ZINC000939075213
##########                DOCK_Rotatable_Bonds:                   7
##########                         Heavy_Atoms:                  24
##########                    Molecular_Weight:             327.426
##########                DOCK_Rotatable_Bonds:                   7
##########                       Formal_Charge:          -0.0200002
##########                     HBond_Acceptors:                   5
##########                        HBond_Donors:                   2
##########                         Heavy_Atoms:                  24
##########                          Grid_Score:          -29.780273
##########                     Grid_vdw_energy:          -28.517256
##########                      Grid_es_energy:           -1.263018
##########           Internal_energy_repulsive:            8.409084

@<TRIPOS>MOLECULE
ZINC000939075213
 49 51 1 0 0
SMALL
USER_CHARGES


@<TRIPOS>ATOM
      1 C1         -0.4994    4.0570   51.2763 C.3     1  ZINC000939075213   -0.1400
      2 C2         -1.4924    3.2526   50.4349 C.3     1  ZINC000939075213   -0.1100
      3 H3         -1.9581    3.8817   49.6763 H       1  ZINC000939075213    0.0900
      4 C4         -2.5617    2.5794   51.3309 C.3     1  ZINC000939075213    0.1100
      5 N5         -3.0288    1.4176   50.5528 N.am    1  ZINC000939075213   -0.6200
      6 C6         -4.2253    0.8119   50.6873 C.2     1  ZINC000939075213    0.5600
      7 O7         -4.5063   -0.1437   49.9867 O.2     1  ZINC000939075213   -0.5400
      8 C8         -5.1552    1.2864   51.6429 C.2     1  ZINC000939075213   -0.2600
      9 C9         -6.4790    1.0411   51.4805 C.2     1  ZINC000939075213    0.0400
     10 C10        -7.4101    1.5159   52.4369 C.2     1  ZINC000939075213    0.0000
     11 C11        -7.1271    2.3240   53.5227 C.2     1  ZINC000939075213   -0.1500
     12 C12        -8.3330    2.5470   54.1938 C.2     1  ZINC000939075213   -0.2200
     13 C13        -9.3102    1.8885   53.5248 C.2     1  ZINC000939075213    0.0200
     14 N14        -8.7634    1.2621   52.4517 N.pl3   1  ZINC000939075213   -0.5000
     15 C15        -1.9738    1.0297   49.6051 C.3     1  ZINC000939075213    0.0900
     16 C16        -0.8045    2.0205   49.7898 C.3     1  ZINC000939075213    0.1400
     17 H17        -0.0502    1.6064   50.4590 H       1  ZINC000939075213    0.1100
     18 N18        -0.2117    2.3696   48.4963 N.am    1  ZINC000939075213   -0.7200
     19 C19         0.6168    1.5041   47.8792 C.2     1  ZINC000939075213    0.5300
     20 O20         0.8729    0.4368   48.3954 O.2     1  ZINC000939075213   -0.5300
     21 C21         1.2251    1.8624   46.5479 C.3     1  ZINC000939075213   -0.0600
     22 C22         1.4222    3.3760   46.4432 C.3     1  ZINC000939075213   -0.1300
     23 C23         2.5408    1.1436   46.3597 C.2     1  ZINC000939075213   -0.1700
     24 C24         2.6311    0.6347   45.1611 C.2     1  ZINC000939075213   -0.1400
     25 C25         1.3907    0.9292   44.3501 C.3     1  ZINC000939075213   -0.1100
     26 C26         0.3310    1.3545   45.3929 C.3     1  ZINC000939075213   -0.1100
     27 H27         0.2865    4.4518   50.6322 H       1  ZINC000939075213    0.0600
     28 H28        -1.0199    4.8824   51.7621 H       1  ZINC000939075213    0.0700
     29 H29        -0.0574    3.4100   52.0339 H       1  ZINC000939075213    0.0600
     30 H30        -2.1177    2.2525   52.2711 H       1  ZINC000939075213    0.0700
     31 H31        -3.3865    3.2667   51.5186 H       1  ZINC000939075213    0.0800
     32 H32        -4.8106    1.8436   52.5014 H       1  ZINC000939075213    0.1300
     33 H33        -6.8236    0.4837   50.6220 H       1  ZINC000939075213    0.1500
     34 H34        -6.1573    2.7096   53.8003 H       1  ZINC000939075213    0.1400
     35 H35        -8.4628    3.1395   55.0874 H       1  ZINC000939075213    0.1400
     36 H36       -10.3547    1.8682   53.7987 H       1  ZINC000939075213    0.1600
     37 H37        -9.2448    0.7211   51.8063 H       1  ZINC000939075213    0.4100
     38 H38        -1.6379    0.0151   49.8194 H       1  ZINC000939075213    0.0800
     39 H39        -2.3519    1.0896   48.5846 H       1  ZINC000939075213    0.0700
     40 H40        -0.4157    3.2236   48.0840 H       1  ZINC000939075213    0.4000
     41 H41         2.0765    3.7137   47.2470 H       1  ZINC000939075213    0.0600
     42 H42         1.8737    3.6180   45.4812 H       1  ZINC000939075213    0.0700
     43 H43         0.4566    3.8748   46.5271 H       1  ZINC000939075213    0.0600
     44 H44         3.3061    1.0620   47.1173 H       1  ZINC000939075213    0.1300
     45 H45         3.4810    0.0768   44.7968 H       1  ZINC000939075213    0.1300
     46 H46         1.5799    1.7414   43.6481 H       1  ZINC000939075213    0.0800
     47 H47         1.0633    0.0356   43.8188 H       1  ZINC000939075213    0.0800
     48 H48        -0.2705    0.5023   45.7094 H       1  ZINC000939075213    0.0900
     49 H49        -0.3000    2.1545   45.0056 H       1  ZINC000939075213    0.0800
@<TRIPOS>BOND
     1     1     2    1
     2     1    27    1
     3     1    28    1
     4     1    29    1
     5     2     3    1
     6     2    16    1
     7     2     4    1
     8     4     5    1
     9     4    30    1
    10     4    31    1
    11     5     6   am
    12     5    15    1
    13     6     7    2
    14     6     8    1
    15     8     9    2
    16     8    32    1
    17     9    10    1
    18     9    33    1
    19    10    14    1
    20    10    11    2
    21    11    12    1
    22    11    34    1
    23    12    13    2
    24    12    35    1
    25    13    14    1
    26    13    36    1
    27    14    37    1
    28    15    16    1
    29    15    38    1
    30    15    39    1
    31    16    17    1
    32    16    18    1
    33    18    19   am
    34    18    40    1
    35    19    20    2
    36    19    21    1
    37    21    26    1
    38    21    22    1
    39    21    23    1
    40    22    41    1
    41    22    42    1
    42    22    43    1
    43    23    24    2
    44    23    44    1
    45    24    25    1
    46    24    45    1
    47    25    26    1
    48    25    46    1
    49    25    47    1
    50    26    48    1
    51    26    49    1
@<TRIPOS>SUBSTRUCTURE
     1 ZINC000939075213        1 TEMP              0 ****  ****    0 ROOT


##########                                Name:    ZINC000012979878
##########                DOCK_Rotatable_Bonds:                   7
##########                         Heavy_Atoms:                  26
##########                    Molecular_Weight:             388.874
##########                DOCK_Rotatable_Bonds:                   7
##########                       Formal_Charge:          -0.0100003
##########                     HBond_Acceptors:                   7
##########                        HBond_Donors:                   1
##########                         Heavy_Atoms:                  26
##########                          Grid_Score:          -29.749250
##########                     Grid_vdw_energy:          -29.970139
##########                      Grid_es_energy:            0.220889
##########           Internal_energy_repulsive:            8.044283

@<TRIPOS>MOLECULE
ZINC000012979878
 43 45 1 0 0
SMALL
USER_CHARGES


@<TRIPOS>ATOM
      1 C1         -9.8463    5.2776   53.7701 C.3     1  <0>         0.0300
      2 O2        -10.7292    4.1813   53.5237 O.3     1  <0>        -0.3100
      3 C3        -10.1664    3.0192   53.0999 C.ar    1  <0>         0.1500
      4 C4        -10.9653    1.9136   52.8446 C.ar    1  <0>        -0.2200
      5 C5        -10.3944    0.7307   52.4140 C.ar    1  <0>        -0.0600
      6 C6         -9.0275    0.6453   52.2359 C.ar    1  <0>        -0.1800
      7 C7         -8.2226    1.7492   52.4900 C.ar    1  <0>         0.1800
      8 N8         -6.8386    1.6627   52.3097 N.am    1  <0>        -0.6700
      9 C9         -6.2875    2.0316   51.1364 C.2     1  <0>         0.6000
     10 O10        -6.9943    2.4400   50.2339 O.2     1  <0>        -0.4900
     11 C11        -4.8360    1.9410   50.9473 C.2     1  <0>        -0.3000
     12 C12        -3.9120    2.8173   51.4155 C.2     1  <0>         0.1600
     13 C13        -4.2758    4.0392   52.2190 C.3     1  <0>        -0.0900
     14 N14        -2.6768    2.5089   51.1095 N.2     1  <0>        -0.4500
     15 C15        -2.4867    1.4335   50.4149 C.2     1  <0>         0.0600
     16 C16        -1.1400    0.9229   49.9713 C.3     1  <0>         0.1300
     17 O17        -0.4483    1.9547   49.2650 O.3     1  <0>        -0.3000
     18 C18        -0.0782    1.6852   47.9852 C.ar    1  <0>         0.1300
     19 C19         0.9998    0.8488   47.7355 C.ar    1  <0>        -0.2000
     20 C20         1.3745    0.5761   46.4341 C.ar    1  <0>        -0.0700
     21 C21         0.6753    1.1371   45.3800 C.ar    1  <0>        -0.0700
     22 Cl22        1.1483    0.7933   43.7454 Cl      1  <0>        -0.0700
     23 C23        -0.4005    1.9712   45.6271 C.ar    1  <0>        -0.0700
     24 C24        -0.7818    2.2418   46.9270 C.ar    1  <0>        -0.1300
     25 S25        -3.9789    0.6704   50.0778 S.3     1  <0>         0.2000
     26 C26        -8.7947    2.9392   52.9169 C.ar    1  <0>        -0.1500
     27 H27        -9.1297    5.0004   54.5431 H       1  <0>         0.0600
     28 H28        -9.3131    5.5280   52.8530 H       1  <0>         0.0600
     29 H29       -10.4231    6.1411   54.1020 H       1  <0>         0.1000
     30 H30       -12.0345    1.9774   52.9830 H       1  <0>         0.1300
     31 H31       -11.0184   -0.1284   52.2168 H       1  <0>         0.1300
     32 H32        -8.5839   -0.2801   51.8994 H       1  <0>         0.1300
     33 H33        -6.2751    1.3371   53.0290 H       1  <0>         0.4100
     34 H34        -4.2844    3.7873   53.2795 H       1  <0>         0.0900
     35 H35        -3.5420    4.8247   52.0382 H       1  <0>         0.0800
     36 H36        -5.2639    4.3893   51.9207 H       1  <0>         0.1000
     37 H37        -0.5581    0.6272   50.8442 H       1  <0>         0.0900
     38 H38        -1.2755    0.0621   49.3163 H       1  <0>         0.1000
     39 H39         1.5463    0.4114   48.5580 H       1  <0>         0.1400
     40 H40         2.2137   -0.0750   46.2393 H       1  <0>         0.1400
     41 H41        -0.9453    2.4079   44.8030 H       1  <0>         0.1400
     42 H42        -1.6216    2.8930   47.1195 H       1  <0>         0.1400
     43 H43        -8.1715    3.7987   53.1147 H       1  <0>         0.1400
@<TRIPOS>BOND
     1     1     2    1
     2     1    27    1
     3     1    28    1
     4     1    29    1
     5     2     3    1
     6     3    26   ar
     7     3     4   ar
     8     4     5   ar
     9     4    30    1
    10     5     6   ar
    11     5    31    1
    12     6     7   ar
    13     6    32    1
    14     7     8    1
    15     7    26   ar
    16     8     9   am
    17     8    33    1
    18     9    10    2
    19     9    11    1
    20    11    25    1
    21    11    12    2
    22    12    13    1
    23    12    14    1
    24    13    34    1
    25    13    35    1
    26    13    36    1
    27    14    15    2
    28    15    16    1
    29    15    25    1
    30    16    17    1
    31    16    37    1
    32    16    38    1
    33    17    18    1
    34    18    24   ar
    35    18    19   ar
    36    19    20   ar
    37    19    39    1
    38    20    21   ar
    39    20    40    1
    40    21    22    1
    41    21    23   ar
    42    23    24   ar
    43    23    41    1
    44    24    42    1
    45    26    43    1
@<TRIPOS>SUBSTRUCTURE
     1 <0>         1 TEMP              0 ****  ****    0 ROOT


##########                                Name:    ZINC000461336108
##########                DOCK_Rotatable_Bonds:                   5
##########                         Heavy_Atoms:                  26
##########                    Molecular_Weight:             373.522
##########                DOCK_Rotatable_Bonds:                   5
##########                       Formal_Charge:        -3.42727e-07
##########                     HBond_Acceptors:                   7
##########                        HBond_Donors:                   0
##########                         Heavy_Atoms:                  26
##########                          Grid_Score:          -29.722853
##########                     Grid_vdw_energy:          -29.534380
##########                      Grid_es_energy:           -0.188472
##########           Internal_energy_repulsive:           11.438530

@<TRIPOS>MOLECULE
ZINC000461336108
 53 56 1 0 0
SMALL
USER_CHARGES


@<TRIPOS>ATOM
      1 C1         -1.2951    1.8012   46.1068 C.3     1  ZINC000461336108   -0.1300
      2 C2         -0.0992    1.1049   46.7594 C.3     1  ZINC000461336108    0.0700
      3 H3         -0.3436    0.0578   46.9383 H       1  ZINC000461336108    0.0800
      4 C4          1.0885    1.1903   45.8431 C.2     1  ZINC000461336108    0.5300
      5 O5          0.9232    0.9950   44.6576 O.2     1  ZINC000461336108   -0.5300
      6 N6          2.3203    1.4731   46.2799 N.am    1  ZINC000461336108   -0.6100
      7 C7          3.4184    1.4966   45.3106 C.3     1  ZINC000461336108    0.0700
      8 C8          2.6195    1.7599   47.6800 C.3     1  ZINC000461336108    0.1200
      9 C9          1.4835    1.2569   48.5726 C.3     1  ZINC000461336108    0.0400
     10 N10         0.2078    1.7594   48.0382 N.3     1  ZINC000461336108   -0.4300
     11 C11        -0.8202    1.5716   48.9483 C.2     1  ZINC000461336108    0.3300
     12 N12        -1.3829    0.4292   49.2648 N.2     1  ZINC000461336108   -0.2500
     13 N13        -2.3016    0.6232   50.1423 N.2     1  ZINC000461336108   -0.2800
     14 C14        -2.3791    1.8904   50.4354 C.2     1  ZINC000461336108    0.2000
     15 C15        -3.3290    2.5232   51.4195 C.3     1  ZINC000461336108   -0.0300
     16 C16        -4.5944    1.6702   51.5276 C.3     1  ZINC000461336108   -0.0900
     17 C17        -5.6985    2.4337   52.3004 C.3     1  ZINC000461336108   -0.1200
     18 C18        -6.9976    1.7532   51.8017 C.3     1  ZINC000461336108   -0.1200
     19 C19        -6.7337    1.4845   50.3058 C.3     1  ZINC000461336108   -0.1300
     20 C20        -5.2058    1.4316   50.1315 C.3     1  ZINC000461336108   -0.1200
     21 N21        -1.4347    2.5391   49.6889 N.pl3   1  ZINC000461336108   -0.4900
     22 C22        -1.1478    3.9757   49.6799 C.3     1  ZINC000461336108    0.1700
     23 C23        -0.0923    4.2837   50.7105 C.2     1  ZINC000461336108   -0.2400
     24 C24         0.7772    5.2929   50.6427 C.2     1  ZINC000461336108   -0.0900
     25 C25         1.6558    5.3784   51.7090 C.2     1  ZINC000461336108   -0.1400
     26 C26         1.4996    4.4386   52.6426 C.2     1  ZINC000461336108   -0.2000
     27 S27         0.1763    3.3719   52.1903 S.3     1  ZINC000461336108    0.1200
     28 H28        -1.0523    2.8485   45.9272 H       1  ZINC000461336108    0.0800
     29 H29        -1.5266    1.3142   45.1595 H       1  ZINC000461336108    0.0800
     30 H30        -2.1587    1.7367   46.7688 H       1  ZINC000461336108    0.0700
     31 H31         3.0321    1.2640   44.3182 H       1  ZINC000461336108    0.0900
     32 H32         3.8730    2.4872   45.3005 H       1  ZINC000461336108    0.0700
     33 H33         4.1672    0.7560   45.5918 H       1  ZINC000461336108    0.0600
     34 H34         3.5476    1.2619   47.9608 H       1  ZINC000461336108    0.0900
     35 H35         2.7341    2.8358   47.8122 H       1  ZINC000461336108    0.0900
     36 H36         1.4761    0.1669   48.5756 H       1  ZINC000461336108    0.0500
     37 H37         1.6257    1.6264   49.5882 H       1  ZINC000461336108    0.1100
     38 H38        -2.8501    2.5883   52.3964 H       1  ZINC000461336108    0.0800
     39 H39        -3.5935    3.5238   51.0772 H       1  ZINC000461336108    0.1000
     40 H40        -4.3727    0.7203   52.0142 H       1  ZINC000461336108    0.0900
     41 H41        -5.5805    2.2997   53.3756 H       1  ZINC000461336108    0.0600
     42 H42        -5.6918    3.4918   52.0387 H       1  ZINC000461336108    0.0600
     43 H43        -7.1661    0.8169   52.3337 H       1  ZINC000461336108    0.0700
     44 H44        -7.8498    2.4217   51.9248 H       1  ZINC000461336108    0.0700
     45 H45        -7.1760    0.5320   50.0139 H       1  ZINC000461336108    0.0700
     46 H46        -7.1506    2.2908   49.7024 H       1  ZINC000461336108    0.0600
     47 H47        -4.8812    2.2123   49.4435 H       1  ZINC000461336108    0.0700
     48 H48        -4.9065    0.4535   49.7550 H       1  ZINC000461336108    0.0700
     49 H49        -0.7885    4.2681   48.6932 H       1  ZINC000461336108    0.1200
     50 H50        -2.0570    4.5292   49.9143 H       1  ZINC000461336108    0.1000
     51 H51         0.7947    5.9902   49.8182 H       1  ZINC000461336108    0.1400
     52 H52         2.4107    6.1474   51.7794 H       1  ZINC000461336108    0.1500
     53 H53         2.0927    4.3486   53.5407 H       1  ZINC000461336108    0.1700
@<TRIPOS>BOND
     1     1     2    1
     2     1    28    1
     3     1    29    1
     4     1    30    1
     5     2     3    1
     6     2    10    1
     7     2     4    1
     8     4     5    2
     9     4     6   am
    10     6     7    1
    11     6     8    1
    12     7    31    1
    13     7    32    1
    14     7    33    1
    15     8     9    1
    16     8    34    1
    17     8    35    1
    18     9    10    1
    19     9    36    1
    20     9    37    1
    21    10    11    1
    22    11    21    1
    23    11    12    2
    24    12    13    1
    25    13    14    2
    26    14    15    1
    27    14    21    1
    28    15    16    1
    29    15    38    1
    30    15    39    1
    31    16    20    1
    32    16    17    1
    33    16    40    1
    34    17    18    1
    35    17    41    1
    36    17    42    1
    37    18    19    1
    38    18    43    1
    39    18    44    1
    40    19    20    1
    41    19    45    1
    42    19    46    1
    43    20    47    1
    44    20    48    1
    45    21    22    1
    46    22    23    1
    47    22    49    1
    48    22    50    1
    49    23    27    1
    50    23    24    2
    51    24    25    1
    52    24    51    1
    53    25    26    2
    54    25    52    1
    55    26    27    1
    56    26    53    1
@<TRIPOS>SUBSTRUCTURE
     1 ZINC000461336108        1 TEMP              0 ****  ****    0 ROOT


##########                                Name:    ZINC000763800048
##########                DOCK_Rotatable_Bonds:                   8
##########                         Heavy_Atoms:                  23
##########                    Molecular_Weight:             329.783
##########                DOCK_Rotatable_Bonds:                   8
##########                       Formal_Charge:           0.0199994
##########                     HBond_Acceptors:                   5
##########                        HBond_Donors:                   1
##########                         Heavy_Atoms:                  23
##########                          Grid_Score:          -29.715279
##########                     Grid_vdw_energy:          -28.896797
##########                      Grid_es_energy:           -0.818481
##########           Internal_energy_repulsive:            6.043716

@<TRIPOS>MOLECULE
ZINC000763800048
 39 40 1 0 0
SMALL
USER_CHARGES


@<TRIPOS>ATOM
      1 C1          3.8364   -1.1072   52.0018 C.3     1  ZINC000763800048    0.0400
      2 O2          3.3253   -0.1168   51.0711 O.3     1  ZINC000763800048   -0.3600
      3 C3          4.2252    0.6815   50.4757 C.2     1  ZINC000763800048    0.4600
      4 O4          5.4051    0.5182   50.6781 O.2     1  ZINC000763800048   -0.4900
      5 C5          3.7637    1.7816   49.5549 C.3     1  ZINC000763800048   -0.0700
      6 C6          2.5110    1.3455   48.8396 C.ar    1  ZINC000763800048   -0.0600
      7 C7          2.5817    0.8994   47.5328 C.ar    1  ZINC000763800048   -0.1200
      8 C8          1.4343    0.4983   46.8728 C.ar    1  ZINC000763800048   -0.1000
      9 C9          0.2140    0.5416   47.5176 C.ar    1  ZINC000763800048   -0.1100
     10 C10         0.1396    0.9889   48.8307 C.ar    1  ZINC000763800048    0.1500
     11 N11        -1.0943    1.0340   49.4866 N.am    1  ZINC000763800048   -0.6700
     12 C12        -1.5678    2.2069   49.9518 C.2     1  ZINC000763800048    0.5500
     13 O13        -0.9212    3.2270   49.8009 O.2     1  ZINC000763800048   -0.5200
     14 C14        -2.8594    2.2541   50.6383 C.2     1  ZINC000763800048   -0.2100
     15 C15        -3.9582    1.7463   50.0435 C.2     1  ZINC000763800048   -0.0100
     16 C16        -5.2566    1.7922   50.7345 C.ar    1  ZINC000763800048   -0.0800
     17 C17        -5.7291    2.9980   51.2628 C.ar    1  ZINC000763800048   -0.0900
     18 C18        -6.9461    3.0335   51.9089 C.ar    1  ZINC000763800048   -0.1100
     19 C19        -7.7007    1.8784   52.0360 C.ar    1  ZINC000763800048   -0.0200
     20 Cl20       -9.2320    1.9325   52.8518 Cl      1  ZINC000763800048   -0.0600
     21 C21        -7.2391    0.6806   51.5149 C.ar    1  ZINC000763800048   -0.1100
     22 C22        -6.0265    0.6314   50.8612 C.ar    1  ZINC000763800048   -0.0800
     23 C23         1.2943    1.3864   49.4922 C.ar    1  ZINC000763800048   -0.1300
     24 H24         3.0068   -1.6839   52.4107 H       1  ZINC000763800048    0.1000
     25 H25         4.5217   -1.7759   51.4808 H       1  ZINC000763800048    0.0600
     26 H26         4.3645   -0.6055   52.8126 H       1  ZINC000763800048    0.0600
     27 H27         3.5559    2.6794   50.1370 H       1  ZINC000763800048    0.1200
     28 H28         4.5437    1.9948   48.8240 H       1  ZINC000763800048    0.1200
     29 H29         3.5347    0.8645   47.0262 H       1  ZINC000763800048    0.1200
     30 H30         1.4928    0.1510   45.8518 H       1  ZINC000763800048    0.1300
     31 H31        -0.6815    0.2285   47.0015 H       1  ZINC000763800048    0.1400
     32 H32        -1.6096    0.2210   49.6069 H       1  ZINC000763800048    0.4100
     33 H33        -2.9327    2.6955   51.6212 H       1  ZINC000763800048    0.1300
     34 H34        -3.8852    1.3060   49.0600 H       1  ZINC000763800048    0.1400
     35 H35        -5.1417    3.8990   51.1650 H       1  ZINC000763800048    0.1400
     36 H36        -7.3123    3.9639   52.3172 H       1  ZINC000763800048    0.1400
     37 H37        -7.8325   -0.2159   51.6177 H       1  ZINC000763800048    0.1400
     38 H38        -5.6680   -0.3030   50.4552 H       1  ZINC000763800048    0.1400
     39 H39         1.2399    1.7342   50.5133 H       1  ZINC000763800048    0.1300
@<TRIPOS>BOND
     1     1     2    1
     2     1    24    1
     3     1    25    1
     4     1    26    1
     5     2     3    1
     6     3     4    2
     7     3     5    1
     8     5     6    1
     9     5    27    1
    10     5    28    1
    11     6    23   ar
    12     6     7   ar
    13     7     8   ar
    14     7    29    1
    15     8     9   ar
    16     8    30    1
    17     9    10   ar
    18     9    31    1
    19    10    11    1
    20    10    23   ar
    21    11    12   am
    22    11    32    1
    23    12    13    2
    24    12    14    1
    25    14    15    2
    26    14    33    1
    27    15    16    1
    28    15    34    1
    29    16    22   ar
    30    16    17   ar
    31    17    18   ar
    32    17    35    1
    33    18    19   ar
    34    18    36    1
    35    19    20    1
    36    19    21   ar
    37    21    22   ar
    38    21    37    1
    39    22    38    1
    40    23    39    1
@<TRIPOS>SUBSTRUCTURE
     1 ZINC000763800048        1 TEMP              0 ****  ****    0 ROOT


##########                                Name:    ZINC000906038034
##########                DOCK_Rotatable_Bonds:                   5
##########                         Heavy_Atoms:                  23
##########                    Molecular_Weight:             387.428
##########                DOCK_Rotatable_Bonds:                   5
##########                       Formal_Charge:         -0.00999987
##########                     HBond_Acceptors:                  12
##########                        HBond_Donors:                   0
##########                         Heavy_Atoms:                  23
##########                          Grid_Score:          -29.713146
##########                     Grid_vdw_energy:          -28.605303
##########                      Grid_es_energy:           -1.107843
##########           Internal_energy_repulsive:            4.607732

@<TRIPOS>MOLECULE
ZINC000906038034
 35 36 1 0 0
SMALL
USER_CHARGES


@<TRIPOS>ATOM
      1 C1         -3.0301    3.8933   56.8040 C.3     1  ZINC000906038034    0.1000
      2 N2         -1.8082    3.8170   55.9993 N.pl3   1  ZINC000906038034   -0.3700
      3 C3         -0.5443    3.8242   56.4755 C.2     1  ZINC000906038034    0.0600
      4 C4          0.2988    3.7389   55.4242 C.2     1  ZINC000906038034   -0.2500
      5 C5         -0.4798    3.6765   54.2500 C.2     1  ZINC000906038034    0.1200
      6 C6          0.0362    3.5757   52.8677 C.2     1  ZINC000906038034    0.1500
      7 N7         -0.6910    3.5791   51.7874 N.2     1  ZINC000906038034   -0.4300
      8 C8         -0.0573    3.4809   50.6409 C.2     1  ZINC000906038034    0.0600
      9 C9         -0.7860    3.4741   49.3218 C.3     1  ZINC000906038034   -0.5300
     10 S10        -0.9288    1.7692   48.7187 S.o2    1  ZINC000906038034    2.4200
     11 O11        -1.6506    1.7809   47.4947 O.2     1  ZINC000906038034   -0.9100
     12 O12         0.3567    1.1651   48.7604 O.2     1  ZINC000906038034   -0.9200
     13 C13        -1.9675    1.0059   49.9950 C.3     1  ZINC000906038034   -0.6100
     14 C14        -3.3354    1.6910   50.0165 C.3     1  ZINC000906038034   -0.4500
     15 S15        -4.5210    0.6465   50.9076 S.o     1  ZINC000906038034    1.3300
     16 O16        -4.6938   -0.5776   50.2069 O.2     1  ZINC000906038034   -0.7600
     17 C17        -6.0553    1.6109   50.8272 C.3     1  ZINC000906038034    0.1200
     18 F18        -6.4124    1.8085   49.4891 F       1  ZINC000906038034   -0.1900
     19 F19        -7.0768    0.9175   51.4850 F       1  ZINC000906038034   -0.1700
     20 F20        -5.8598    2.8505   51.4457 F       1  ZINC000906038034   -0.1600
     21 C21         1.2739    3.3879   50.7168 C.2     1  ZINC000906038034   -0.2300
     22 S22         1.7340    3.4392   52.4175 S.3     1  ZINC000906038034    0.1600
     23 N23        -1.7488    3.7179   54.6034 N.2     1  ZINC000906038034   -0.2400
     24 H24        -3.3499    2.8872   57.0754 H       1  ZINC000906038034    0.0800
     25 H25        -2.8339    4.4686   57.7089 H       1  ZINC000906038034    0.0900
     26 H26        -3.8156    4.3810   56.2266 H       1  ZINC000906038034    0.0900
     27 H27        -0.2580    3.8874   57.5150 H       1  ZINC000906038034    0.1800
     28 H28         1.3775    3.7221   55.4737 H       1  ZINC000906038034    0.1600
     29 H29        -1.7817    3.8971   49.4546 H       1  ZINC000906038034    0.1500
     30 H30        -0.2315    4.0705   48.5973 H       1  ZINC000906038034    0.1600
     31 H31        -2.0953   -0.0537   49.7738 H       1  ZINC000906038034    0.1500
     32 H32        -1.4894    1.1187   50.9681 H       1  ZINC000906038034    0.1500
     33 H33        -3.2511    2.6548   50.5186 H       1  ZINC000906038034    0.1600
     34 H34        -3.6817    1.8431   48.9942 H       1  ZINC000906038034    0.1300
     35 H35         1.9512    3.3007   49.8801 H       1  ZINC000906038034    0.1900
@<TRIPOS>BOND
     1     1     2    1
     2     1    24    1
     3     1    25    1
     4     1    26    1
     5     2    23    1
     6     2     3    1
     7     3     4    2
     8     3    27    1
     9     4     5    1
    10     4    28    1
    11     5     6    1
    12     5    23    2
    13     6    22    1
    14     6     7    2
    15     7     8    1
    16     8     9    1
    17     8    21    2
    18     9    10    1
    19     9    29    1
    20     9    30    1
    21    10    11    2
    22    10    12    2
    23    10    13    1
    24    13    14    1
    25    13    31    1
    26    13    32    1
    27    14    15    1
    28    14    33    1
    29    14    34    1
    30    15    16    2
    31    15    17    1
    32    17    18    1
    33    17    19    1
    34    17    20    1
    35    21    22    1
    36    21    35    1
@<TRIPOS>SUBSTRUCTURE
     1 ZINC000906038034        1 TEMP              0 ****  ****    0 ROOT


##########                                Name:    ZINC000478980774
##########                DOCK_Rotatable_Bonds:                   4
##########                         Heavy_Atoms:                  26
##########                    Molecular_Weight:             401.818
##########                DOCK_Rotatable_Bonds:                   4
##########                       Formal_Charge:          -0.0100001
##########                     HBond_Acceptors:                   9
##########                        HBond_Donors:                   1
##########                         Heavy_Atoms:                  26
##########                          Grid_Score:          -29.695917
##########                     Grid_vdw_energy:          -27.297007
##########                      Grid_es_energy:           -2.398911
##########           Internal_energy_repulsive:            8.806398

@<TRIPOS>MOLECULE
ZINC000478980774
 40 42 1 0 0
SMALL
USER_CHARGES


@<TRIPOS>ATOM
      1 C1         -6.7074    1.6222   50.6488 C.3     1  ZINC000478980774   -0.1400
      2 C2         -5.5689    1.4148   51.6496 C.3     1  ZINC000478980774   -0.4600
      3 H3         -5.7612    0.5176   52.2380 H       1  ZINC000478980774    0.1500
      4 C4         -4.2681    1.2579   50.9051 C.2     1  ZINC000478980774    0.5400
      5 O5         -4.0185    0.2182   50.3325 O.2     1  ZINC000478980774   -0.5000
      6 N6         -3.3818    2.2728   50.8758 N.am    1  ZINC000478980774   -0.6600
      7 C7         -2.1724    2.1270   50.1838 C.ar    1  ZINC000478980774    0.1600
      8 C8         -0.9665    2.2583   50.8583 C.ar    1  ZINC000478980774   -0.1200
      9 C9          0.2275    2.1152   50.1768 C.ar    1  ZINC000478980774   -0.0600
     10 C10         0.2243    1.8405   48.8192 C.ar    1  ZINC000478980774    0.0100
     11 O11         1.2459    1.6572   47.9313 O.3     1  ZINC000478980774   -0.2900
     12 C12         0.6523    1.0083   46.7912 C.3     1  ZINC000478980774    0.5700
     13 F13         1.2702    1.4297   45.6088 F       1  ZINC000478980774   -0.1100
     14 F14         0.7353   -0.3824   46.9188 F       1  ZINC000478980774   -0.1500
     15 O15        -0.7202    1.4416   46.8269 O.3     1  ZINC000478980774   -0.2800
     16 C16        -0.9847    1.7077   48.1395 C.ar    1  ZINC000478980774    0.0500
     17 C17        -2.1801    1.8455   48.8240 C.ar    1  ZINC000478980774   -0.0900
     18 S18        -5.4646    2.8509   52.7530 S.o     1  ZINC000478980774    1.3000
     19 O19        -5.1820    4.0154   51.9894 O.2     1  ZINC000478980774   -0.7800
     20 C20        -7.1427    2.9659   53.4325 C.3     1  ZINC000478980774   -0.4300
     21 C21        -7.2201    4.1314   54.3848 C.ar    1  ZINC000478980774   -0.0600
     22 C22        -7.6543    5.3638   53.9349 C.ar    1  ZINC000478980774   -0.1100
     23 C23        -7.7254    6.4332   54.8084 C.ar    1  ZINC000478980774   -0.1100
     24 C24        -7.3617    6.2704   56.1320 C.ar    1  ZINC000478980774   -0.1100
     25 C25        -6.9272    5.0381   56.5831 C.ar    1  ZINC000478980774   -0.1100
     26 C26        -6.8618    3.9663   55.7111 C.ar    1  ZINC000478980774   -0.0300
     27 Cl27       -6.3162    2.4184   56.2769 Cl      1  ZINC000478980774   -0.0600
     28 H28        -7.6483    1.7356   51.1873 H       1  ZINC000478980774    0.0800
     29 H29        -6.5150    2.5193   50.0604 H       1  ZINC000478980774    0.0700
     30 H30        -6.7700    0.7593   49.9857 H       1  ZINC000478980774    0.0700
     31 H31        -3.5811    3.1042   51.3339 H       1  ZINC000478980774    0.4200
     32 H32        -0.9611    2.4729   51.9168 H       1  ZINC000478980774    0.1500
     33 H33         1.1645    2.2181   50.7037 H       1  ZINC000478980774    0.1500
     34 H34        -3.1182    1.7381   48.3000 H       1  ZINC000478980774    0.1600
     35 H35        -7.8544    3.1127   52.6201 H       1  ZINC000478980774    0.1100
     36 H36        -7.3832    2.0455   53.9644 H       1  ZINC000478980774    0.1300
     37 H37        -7.9379    5.4917   52.9007 H       1  ZINC000478980774    0.1400
     38 H38        -8.0647    7.3962   54.4564 H       1  ZINC000478980774    0.1300
     39 H39        -7.4167    7.1063   56.8136 H       1  ZINC000478980774    0.1300
     40 H40        -6.6431    4.9111   57.6173 H       1  ZINC000478980774    0.1300
@<TRIPOS>BOND
     1     1     2    1
     2     1    28    1
     3     1    29    1
     4     1    30    1
     5     2     3    1
     6     2     4    1
     7     2    18    1
     8     4     5    2
     9     4     6   am
    10     6     7    1
    11     6    31    1
    12     7    17   ar
    13     7     8   ar
    14     8     9   ar
    15     8    32    1
    16     9    10   ar
    17     9    33    1
    18    10    16   ar
    19    10    11    1
    20    11    12    1
    21    12    13    1
    22    12    14    1
    23    12    15    1
    24    15    16    1
    25    16    17   ar
    26    17    34    1
    27    18    19    2
    28    18    20    1
    29    20    21    1
    30    20    35    1
    31    20    36    1
    32    21    26   ar
    33    21    22   ar
    34    22    23   ar
    35    22    37    1
    36    23    24   ar
    37    23    38    1
    38    24    25   ar
    39    24    39    1
    40    25    26   ar
    41    25    40    1
    42    26    27    1
@<TRIPOS>SUBSTRUCTURE
     1 ZINC000478980774        1 TEMP              0 ****  ****    0 ROOT


##########                                Name:    ZINC000156038173
##########                DOCK_Rotatable_Bonds:                  10
##########                         Heavy_Atoms:                  27
##########                    Molecular_Weight:             396.357
##########                DOCK_Rotatable_Bonds:                  10
##########                       Formal_Charge:         -0.00999981
##########                     HBond_Acceptors:                  10
##########                        HBond_Donors:                   1
##########                         Heavy_Atoms:                  27
##########                          Grid_Score:          -29.695179
##########                     Grid_vdw_energy:          -29.587358
##########                      Grid_es_energy:           -0.107821
##########           Internal_energy_repulsive:           21.933262

@<TRIPOS>MOLECULE
ZINC000156038173
 48 48 1 0 0
SMALL
USER_CHARGES


@<TRIPOS>ATOM
      1 C1         -5.4860    4.5982   56.3212 C.3     1  ZINC000156038173    0.0700
      2 N2         -6.6458    3.7461   56.0478 N.am    1  ZINC000156038173   -0.6300
      3 C3         -7.4879    3.2788   57.1519 C.3     1  ZINC000156038173    0.1500
      4 C4         -7.3659    1.7589   57.2783 C.3     1  ZINC000156038173   -0.1400
      5 C5         -7.4707    1.3655   58.7293 C.2     1  ZINC000156038173    0.4700
      6 O6         -7.7363    2.1984   59.5633 O.2     1  ZINC000156038173   -0.5000
      7 O7         -7.2690    0.0899   59.0951 O.3     1  ZINC000156038173   -0.3500
      8 C8         -8.4143   -0.6360   59.6143 C.3     1  ZINC000156038173    0.1200
      9 C9         -8.5716   -0.3402   61.1072 C.3     1  ZINC000156038173   -0.1800
     10 C10        -9.6771   -0.1951   58.8714 C.3     1  ZINC000156038173   -0.1400
     11 C11        -8.2013   -2.1374   59.4115 C.3     1  ZINC000156038173   -0.1800
     12 C12        -6.9382    3.3920   54.7807 C.2     1  ZINC000156038173    0.7100
     13 O13        -7.9017    2.6860   54.5537 O.2     1  ZINC000156038173   -0.5700
     14 N14        -6.1627    3.8207   53.7652 N.am    1  ZINC000156038173   -0.7400
     15 C15        -6.4815    3.4373   52.3877 C.3     1  ZINC000156038173    0.1700
     16 H16        -7.3785    2.8180   52.3813 H       1  ZINC000156038173    0.1500
     17 C17        -5.3303    2.6599   51.8033 C.ar    1  ZINC000156038173   -0.1300
     18 C18        -4.0936    3.2601   51.6591 C.ar    1  ZINC000156038173   -0.0700
     19 C19        -3.0365    2.5483   51.1231 C.ar    1  ZINC000156038173   -0.1000
     20 C20        -3.2140    1.2351   50.7303 C.ar    1  ZINC000156038173   -0.1100
     21 C21        -4.4512    0.6313   50.8734 C.ar    1  ZINC000156038173    0.0700
     22 F22        -4.6256   -0.6523   50.4896 F       1  ZINC000156038173   -0.1200
     23 C23        -5.5099    1.3432   51.4162 C.ar    1  ZINC000156038173    0.1000
     24 F24        -6.7184    0.7559   51.5567 F       1  ZINC000156038173   -0.1200
     25 C25        -6.7243    4.6952   51.5513 C.3     1  ZINC000156038173    0.4500
     26 F26        -5.8274    5.6952   51.9421 F       1  ZINC000156038173   -0.1700
     27 F27        -6.5321    4.3994   50.1975 F       1  ZINC000156038173   -0.1600
     28 F28        -8.0354    5.1412   51.7497 F       1  ZINC000156038173   -0.1700
     29 H29        -4.6075    3.9744   56.4860 H       1  ZINC000156038173    0.0600
     30 H30        -5.3099    5.2562   55.4702 H       1  ZINC000156038173    0.0700
     31 H31        -5.6775    5.1983   57.2108 H       1  ZINC000156038173    0.0800
     32 H32        -7.1627    3.7478   58.0805 H       1  ZINC000156038173    0.1000
     33 H33        -8.5263    3.5448   56.9546 H       1  ZINC000156038173    0.0900
     34 H34        -8.1669    1.2819   56.7137 H       1  ZINC000156038173    0.1100
     35 H35        -6.4020    1.4377   56.8835 H       1  ZINC000156038173    0.1100
     36 H36        -8.7234    0.7294   61.2517 H       1  ZINC000156038173    0.0600
     37 H37        -9.4314   -0.8852   61.4969 H       1  ZINC000156038173    0.0700
     38 H38        -7.6720   -0.6543   61.6365 H       1  ZINC000156038173    0.0800
     39 H39        -9.5651   -0.4057   57.8078 H       1  ZINC000156038173    0.0700
     40 H40       -10.5369   -0.7400   59.2611 H       1  ZINC000156038173    0.0800
     41 H41        -9.8289    0.8746   59.0158 H       1  ZINC000156038173    0.0700
     42 H42        -7.3017   -2.4515   59.9408 H       1  ZINC000156038173    0.0800
     43 H43        -9.0611   -2.6824   59.8012 H       1  ZINC000156038173    0.0700
     44 H44        -8.0893   -2.3480   58.3478 H       1  ZINC000156038173    0.0600
     45 H45        -5.3933    4.3829   53.9464 H       1  ZINC000156038173    0.4100
     46 H46        -3.9531    4.2862   51.9652 H       1  ZINC000156038173    0.1400
     47 H47        -2.0710    3.0190   51.0109 H       1  ZINC000156038173    0.1500
     48 H48        -2.3875    0.6804   50.3114 H       1  ZINC000156038173    0.1500
@<TRIPOS>BOND
     1     1     2    1
     2     1    29    1
     3     1    30    1
     4     1    31    1
     5     2     3    1
     6     2    12   am
     7     3     4    1
     8     3    32    1
     9     3    33    1
    10     4     5    1
    11     4    34    1
    12     4    35    1
    13     5     6    2
    14     5     7    1
    15     7     8    1
    16     8     9    1
    17     8    10    1
    18     8    11    1
    19     9    36    1
    20     9    37    1
    21     9    38    1
    22    10    39    1
    23    10    40    1
    24    10    41    1
    25    11    42    1
    26    11    43    1
    27    11    44    1
    28    12    13    2
    29    12    14   am
    30    14    15    1
    31    14    45    1
    32    15    16    1
    33    15    17    1
    34    15    25    1
    35    17    23   ar
    36    17    18   ar
    37    18    19   ar
    38    18    46    1
    39    19    20   ar
    40    19    47    1
    41    20    21   ar
    42    20    48    1
    43    21    22    1
    44    21    23   ar
    45    23    24    1
    46    25    26    1
    47    25    27    1
    48    25    28    1
@<TRIPOS>SUBSTRUCTURE
     1 ZINC000156038173        1 TEMP              0 ****  ****    0 ROOT


##########                                Name:    ZINC000151991096
##########                DOCK_Rotatable_Bonds:                   8
##########                         Heavy_Atoms:                  27
##########                    Molecular_Weight:             364.444
##########                DOCK_Rotatable_Bonds:                   8
##########                       Formal_Charge:          -0.0200004
##########                     HBond_Acceptors:                   5
##########                        HBond_Donors:                   1
##########                         Heavy_Atoms:                  27
##########                          Grid_Score:          -29.691456
##########                     Grid_vdw_energy:          -30.222813
##########                      Grid_es_energy:            0.531358
##########           Internal_energy_repulsive:           10.396828

@<TRIPOS>MOLECULE
ZINC000151991096
 51 53 1 0 0
SMALL
USER_CHARGES


@<TRIPOS>ATOM
      1 C1        -10.1815    1.0031   54.2380 C.3     1  ZINC000151991096   -0.1500
      2 C2         -9.9714    2.4752   53.8778 C.3     1  ZINC000151991096   -0.1300
      3 C3         -9.7161    2.6010   52.3745 C.3     1  ZINC000151991096    0.1400
      4 H4        -10.2103    1.7817   51.8522 H       1  ZINC000151991096    0.1000
      5 N5         -8.2749    2.5452   52.1176 N.am    1  ZINC000151991096   -0.7200
      6 C6         -7.7202    1.4173   51.6312 C.2     1  ZINC000151991096    0.5600
      7 O7         -8.4158    0.4455   51.4071 O.2     1  ZINC000151991096   -0.5300
      8 C8         -6.2684    1.3617   51.3707 C.ar    1  ZINC000151991096   -0.1700
      9 C9         -5.7126    0.2474   50.7369 C.ar    1  ZINC000151991096   -0.0500
     10 C10        -4.3578    0.1996   50.4952 C.ar    1  ZINC000151991096   -0.1600
     11 C11        -3.5434    1.2579   50.8809 C.ar    1  ZINC000151991096    0.1600
     12 O12        -2.2087    1.2072   50.6407 O.3     1  ZINC000151991096   -0.3000
     13 C13        -1.6325    2.3137   49.9436 C.3     1  ZINC000151991096    0.0900
     14 C14        -0.7519    1.8036   48.8322 C.ar    1  ZINC000151991096   -0.0500
     15 C15        -1.2512    1.6899   47.5515 C.ar    1  ZINC000151991096   -0.1000
     16 C16        -0.4438    1.2217   46.5297 C.ar    1  ZINC000151991096   -0.0900
     17 C17         0.8680    0.8642   46.7846 C.ar    1  ZINC000151991096   -0.1200
     18 C18         1.3804    0.9728   48.0610 C.ar    1  ZINC000151991096   -0.0700
     19 C19         0.5734    1.4503   49.0954 C.ar    1  ZINC000151991096   -0.0200
     20 C20         1.0985    1.5657   50.4227 C.1     1  ZINC000151991096    0.2400
     21 N21         1.5151    1.6573   51.4755 N.1     1  ZINC000151991096   -0.4000
     22 C22        -4.0924    2.3681   51.5117 C.ar    1  ZINC000151991096   -0.2200
     23 C23        -5.4471    2.4259   51.7522 C.ar    1  ZINC000151991096   -0.0100
     24 C24       -10.2724    3.9350   51.8726 C.3     1  ZINC000151991096    0.0700
     25 H25        -9.9761    4.7369   52.5488 H       1  ZINC000151991096    0.1000
     26 C26       -11.8122    3.8622   51.7895 C.3     1  ZINC000151991096   -0.1500
     27 C27       -12.1090    4.6445   50.4811 C.3     1  ZINC000151991096   -0.1600
     28 C28       -10.8739    4.2663   49.6256 C.3     1  ZINC000151991096    0.0500
     29 O29        -9.7781    4.2027   50.5552 O.3     1  ZINC000151991096   -0.3700
     30 H30        -9.2914    0.4332   53.9717 H       1  ZINC000151991096    0.0500
     31 H31       -10.3634    0.9136   55.3089 H       1  ZINC000151991096    0.0500
     32 H32       -11.0396    0.6139   53.6899 H       1  ZINC000151991096    0.0600
     33 H33       -10.8615    3.0451   54.1440 H       1  ZINC000151991096    0.0700
     34 H34        -9.1133    2.8645   54.4259 H       1  ZINC000151991096    0.0700
     35 H35        -7.7198    3.3201   52.2975 H       1  ZINC000151991096    0.4000
     36 H36        -6.3446   -0.5754   50.4372 H       1  ZINC000151991096    0.1300
     37 H37        -3.9273   -0.6615   50.0057 H       1  ZINC000151991096    0.1400
     38 H38        -2.4261    2.9317   49.5239 H       1  ZINC000151991096    0.0800
     39 H39        -1.0363    2.9084   50.6357 H       1  ZINC000151991096    0.0800
     40 H40        -2.2746    1.9667   47.3458 H       1  ZINC000151991096    0.1400
     41 H41        -0.8400    1.1347   45.5287 H       1  ZINC000151991096    0.1400
     42 H42         1.4923    0.4987   45.9827 H       1  ZINC000151991096    0.1400
     43 H43         2.4046    0.6929   48.2587 H       1  ZINC000151991096    0.1400
     44 H44        -3.4563    3.1883   51.8102 H       1  ZINC000151991096    0.1300
     45 H45        -5.8730    3.2890   52.2421 H       1  ZINC000151991096    0.1400
     46 H46       -12.1479    2.8284   51.7079 H       1  ZINC000151991096    0.0800
     47 H47       -12.2707    4.3535   52.6478 H       1  ZINC000151991096    0.0900
     48 H48       -13.0310    4.2961   50.0156 H       1  ZINC000151991096    0.0800
     49 H49       -12.1455    5.7183   50.6651 H       1  ZINC000151991096    0.0800
     50 H50       -11.0250    3.2967   49.1510 H       1  ZINC000151991096    0.0600
     51 H51       -10.6862    5.0318   48.8727 H       1  ZINC000151991096    0.0900
@<TRIPOS>BOND
     1     1     2    1
     2     1    30    1
     3     1    31    1
     4     1    32    1
     5     2     3    1
     6     2    33    1
     7     2    34    1
     8     3     4    1
     9     3     5    1
    10     3    24    1
    11     5     6   am
    12     5    35    1
    13     6     7    2
    14     6     8    1
    15     8    23   ar
    16     8     9   ar
    17     9    10   ar
    18     9    36    1
    19    10    11   ar
    20    10    37    1
    21    11    12    1
    22    11    22   ar
    23    12    13    1
    24    13    14    1
    25    13    38    1
    26    13    39    1
    27    14    19   ar
    28    14    15   ar
    29    15    16   ar
    30    15    40    1
    31    16    17   ar
    32    16    41    1
    33    17    18   ar
    34    17    42    1
    35    18    19   ar
    36    18    43    1
    37    19    20    1
    38    20    21    3
    39    22    23   ar
    40    22    44    1
    41    23    45    1
    42    24    25    1
    43    24    29    1
    44    24    26    1
    45    26    27    1
    46    26    46    1
    47    26    47    1
    48    27    28    1
    49    27    48    1
    50    27    49    1
    51    28    29    1
    52    28    50    1
    53    28    51    1
@<TRIPOS>SUBSTRUCTURE
     1 ZINC000151991096        1 TEMP              0 ****  ****    0 ROOT


##########                                Name:    ZINC000481050680
##########                DOCK_Rotatable_Bonds:                   7
##########                         Heavy_Atoms:                  29
##########                    Molecular_Weight:              412.46
##########                DOCK_Rotatable_Bonds:                   7
##########                       Formal_Charge:          -0.0199997
##########                     HBond_Acceptors:                   7
##########                        HBond_Donors:                   1
##########                         Heavy_Atoms:                  29
##########                          Grid_Score:          -29.677177
##########                     Grid_vdw_energy:          -29.938864
##########                      Grid_es_energy:            0.261687
##########           Internal_energy_repulsive:           13.162971

@<TRIPOS>MOLECULE
ZINC000481050680
 47 49 1 0 0
SMALL
USER_CHARGES


@<TRIPOS>ATOM
      1 N1         -8.2562    1.3981   52.2342 N.1     1  ZINC000481050680   -0.3900
      2 C2         -7.1557    1.4137   51.9532 C.1     1  ZINC000481050680    0.2500
      3 C3         -5.7684    1.4335   51.5988 C.ar    1  ZINC000481050680    0.0200
      4 C4         -5.2235    0.3947   50.8417 C.ar    1  ZINC000481050680   -0.0800
      5 C5         -3.8862    0.4190   50.5027 C.ar    1  ZINC000481050680   -0.0800
      6 C6         -3.0844    1.4693   50.9108 C.ar    1  ZINC000481050680   -0.1000
      7 C7         -1.6248    1.4885   50.5364 C.3     1  ZINC000481050680   -0.5900
      8 S8         -1.3967    2.4928   49.0431 S.o2    1  ZINC000481050680    2.6000
      9 O9         -2.3108    2.0953   48.0304 O.2     1  ZINC000481050680   -0.9300
     10 O10        -1.2308    3.8624   49.3839 O.2     1  ZINC000481050680   -0.9400
     11 N11         0.0839    2.0350   48.4594 N.am    1  ZINC000481050680   -1.1100
     12 C12         0.6113    2.6482   47.2380 C.3     1  ZINC000481050680    0.2100
     13 H13        -0.2129    2.8837   46.5647 H       1  ZINC000481050680    0.1000
     14 C14         1.5689    1.6730   46.5503 C.3     1  ZINC000481050680   -0.0800
     15 C15         0.8688    1.0168   45.3883 C.ar    1  ZINC000481050680   -0.0900
     16 C16        -0.4669    0.6756   45.4895 C.ar    1  ZINC000481050680   -0.1200
     17 C17        -1.1092    0.0735   44.4237 C.ar    1  ZINC000481050680   -0.1200
     18 C18        -0.4158   -0.1869   43.2566 C.ar    1  ZINC000481050680   -0.1200
     19 C19         0.9198    0.1550   43.1551 C.ar    1  ZINC000481050680   -0.1200
     20 C20         1.5609    0.7610   44.2194 C.ar    1  ZINC000481050680   -0.1200
     21 C21         1.3499    3.9137   47.5897 C.ar    1  ZINC000481050680   -0.1300
     22 C22         1.8965    4.0676   48.8495 C.ar    1  ZINC000481050680   -0.0700
     23 C23         2.5742    5.2287   49.1724 C.ar    1  ZINC000481050680   -0.1300
     24 C24         2.7053    6.2369   48.2360 C.ar    1  ZINC000481050680   -0.0900
     25 C25         2.1590    6.0855   46.9755 C.ar    1  ZINC000481050680   -0.1500
     26 C26         1.4859    4.9206   46.6487 C.ar    1  ZINC000481050680    0.1100
     27 F27         0.9516    4.7715   45.4170 F       1  ZINC000481050680   -0.1400
     28 C28        -3.6177    2.5046   51.6623 C.ar    1  ZINC000481050680    0.1200
     29 F29        -2.8286    3.5276   52.0571 F       1  ZINC000481050680   -0.1200
     30 C30        -4.9563    2.4944   52.0042 C.ar    1  ZINC000481050680   -0.1000
     31 H31        -5.8476   -0.4268   50.5220 H       1  ZINC000481050680    0.1500
     32 H32        -3.4644   -0.3847   49.9172 H       1  ZINC000481050680    0.1500
     33 H33        -1.0455    1.9169   51.3544 H       1  ZINC000481050680    0.1500
     34 H34        -1.2854    0.4705   50.3450 H       1  ZINC000481050680    0.1500
     35 H35         0.6019    1.3608   48.9265 H       1  ZINC000481050680    0.4200
     36 H36         2.4423    2.2158   46.1887 H       1  ZINC000481050680    0.0900
     37 H37         1.8841    0.9105   47.2624 H       1  ZINC000481050680    0.0900
     38 H38        -1.0087    0.8791   46.4014 H       1  ZINC000481050680    0.1200
     39 H39        -2.1526   -0.1936   44.5030 H       1  ZINC000481050680    0.1200
     40 H40        -0.9174   -0.6580   42.4242 H       1  ZINC000481050680    0.1200
     41 H41         1.4616   -0.0489   42.2433 H       1  ZINC000481050680    0.1200
     42 H42         2.6043    1.0281   44.1401 H       1  ZINC000481050680    0.1200
     43 H43         1.7940    3.2808   49.5821 H       1  ZINC000481050680    0.1300
     44 H44         3.0011    5.3480   50.1573 H       1  ZINC000481050680    0.1300
     45 H45         3.2346    7.1436   48.4896 H       1  ZINC000481050680    0.1300
     46 H46         2.2611    6.8737   46.2442 H       1  ZINC000481050680    0.1400
     47 H47        -5.3719    3.3013   52.5895 H       1  ZINC000481050680    0.1600
@<TRIPOS>BOND
     1     1     2    3
     2     2     3    1
     3     3    30   ar
     4     3     4   ar
     5     4     5   ar
     6     4    31    1
     7     5     6   ar
     8     5    32    1
     9     6     7    1
    10     6    28   ar
    11     7     8    1
    12     7    33    1
    13     7    34    1
    14     8     9    2
    15     8    10    2
    16     8    11   am
    17    11    12    1
    18    11    35    1
    19    12    13    1
    20    12    14    1
    21    12    21    1
    22    14    15    1
    23    14    36    1
    24    14    37    1
    25    15    20   ar
    26    15    16   ar
    27    16    17   ar
    28    16    38    1
    29    17    18   ar
    30    17    39    1
    31    18    19   ar
    32    18    40    1
    33    19    20   ar
    34    19    41    1
    35    20    42    1
    36    21    26   ar
    37    21    22   ar
    38    22    23   ar
    39    22    43    1
    40    23    24   ar
    41    23    44    1
    42    24    25   ar
    43    24    45    1
    44    25    26   ar
    45    25    46    1
    46    26    27    1
    47    28    29    1
    48    28    30   ar
    49    30    47    1
@<TRIPOS>SUBSTRUCTURE
     1 ZINC000481050680        1 TEMP              0 ****  ****    0 ROOT


##########                                Name:    ZINC000854704989
##########                DOCK_Rotatable_Bonds:                   5
##########                         Heavy_Atoms:                  22
##########                    Molecular_Weight:             365.227
##########                DOCK_Rotatable_Bonds:                   5
##########                       Formal_Charge:        -1.78814e-07
##########                     HBond_Acceptors:                   5
##########                        HBond_Donors:                   1
##########                         Heavy_Atoms:                  22
##########                          Grid_Score:          -29.670118
##########                     Grid_vdw_energy:          -28.201706
##########                      Grid_es_energy:           -1.468413
##########           Internal_energy_repulsive:            5.259752

@<TRIPOS>MOLECULE
ZINC000854704989
 39 41 1 0 0
SMALL
USER_CHARGES


@<TRIPOS>ATOM
      1 O1         -4.1616   -0.3633   50.2290 O.2     1  ZINC000854704989   -0.5300
      2 C2         -4.2653    0.8142   50.5123 C.2     1  ZINC000854704989    0.5700
      3 N3         -5.4816    1.3474   50.7422 N.am    1  ZINC000854704989   -0.7300
      4 C4         -6.6792    0.5093   50.6446 C.3     1  ZINC000854704989    0.2000
      5 C5         -7.7330    1.0269   51.5894 C.2     1  ZINC000854704989   -0.0500
      6 C6         -7.9300    2.3155   51.9562 C.2     1  ZINC000854704989   -0.1700
      7 C7         -9.0289    2.2535   52.8453 C.2     1  ZINC000854704989    0.0000
      8 Br8        -9.8436    3.7049   53.7428 Br      1  ZINC000854704989    0.0600
      9 N9         -9.3682    0.9982   52.9225 N.2     1  ZINC000854704989   -0.3200
     10 O10        -8.6636    0.3034   52.2275 O.3     1  ZINC000854704989    0.1300
     11 C11        -3.0567    1.6601   50.6109 C.ar    1  ZINC000854704989   -0.1300
     12 C12        -2.9039    2.5420   51.6816 C.ar    1  ZINC000854704989   -0.0900
     13 C13        -1.7734    3.3282   51.7679 C.ar    1  ZINC000854704989   -0.1200
     14 C14        -0.7929    3.2442   50.7956 C.ar    1  ZINC000854704989   -0.0900
     15 C15        -0.9383    2.3718   49.7312 C.ar    1  ZINC000854704989   -0.0800
     16 C16         0.1350    2.2869   48.6767 C.3     1  ZINC000854704989   -0.0800
     17 H17         0.9338    2.9900   48.9127 H       1  ZINC000854704989    0.0900
     18 C18        -0.4626    2.6313   47.3090 C.3     1  ZINC000854704989   -0.1100
     19 C19         0.6178    2.4661   46.2358 C.3     1  ZINC000854704989   -0.1600
     20 C20         1.1636    1.0367   46.2881 C.3     1  ZINC000854704989    0.0600
     21 O21         1.6760    0.7714   47.5955 O.3     1  ZINC000854704989   -0.3800
     22 C22         0.7006    0.8649   48.6358 C.3     1  ZINC000854704989    0.0700
     23 C23        -2.0609    1.5761   49.6362 C.ar    1  ZINC000854704989   -0.0500
     24 H24        -5.5640    2.2861   50.9722 H       1  ZINC000854704989    0.4000
     25 H25        -7.0605    0.5379   49.6239 H       1  ZINC000854704989    0.1100
     26 H26        -6.4266   -0.5174   50.9094 H       1  ZINC000854704989    0.1000
     27 H27        -7.3764    3.1883   51.6431 H       1  ZINC000854704989    0.1900
     28 H28        -3.6690    2.6090   52.4409 H       1  ZINC000854704989    0.1200
     29 H29        -1.6539    4.0110   52.5960 H       1  ZINC000854704989    0.1300
     30 H30         0.0898    3.8623   50.8674 H       1  ZINC000854704989    0.1300
     31 H31        -1.2946    1.9603   47.0952 H       1  ZINC000854704989    0.0700
     32 H32        -0.8162    3.6623   47.3147 H       1  ZINC000854704989    0.0700
     33 H33         0.1867    2.6556   45.2528 H       1  ZINC000854704989    0.0800
     34 H34         1.4270    3.1721   46.4220 H       1  ZINC000854704989    0.0700
     35 H35         0.3624    0.3332   46.0620 H       1  ZINC000854704989    0.0500
     36 H36         1.9627    0.9257   45.5551 H       1  ZINC000854704989    0.1000
     37 H37         1.1663    0.6297   49.5928 H       1  ZINC000854704989    0.1000
     38 H38        -0.1072    0.1594   48.4413 H       1  ZINC000854704989    0.0500
     39 H39        -2.1731    0.8953   48.8052 H       1  ZINC000854704989    0.1400
@<TRIPOS>BOND
     1     1     2    2
     2     2     3   am
     3     2    11    1
     4     3     4    1
     5     3    24    1
     6     4     5    1
     7     4    25    1
     8     4    26    1
     9     5    10    1
    10     5     6    2
    11     6     7    1
    12     6    27    1
    13     7     8    1
    14     7     9    2
    15     9    10    1
    16    11    23   ar
    17    11    12   ar
    18    12    13   ar
    19    12    28    1
    20    13    14   ar
    21    13    29    1
    22    14    15   ar
    23    14    30    1
    24    15    16    1
    25    15    23   ar
    26    16    17    1
    27    16    22    1
    28    16    18    1
    29    18    19    1
    30    18    31    1
    31    18    32    1
    32    19    20    1
    33    19    33    1
    34    19    34    1
    35    20    21    1
    36    20    35    1
    37    20    36    1
    38    21    22    1
    39    22    37    1
    40    22    38    1
    41    23    39    1
@<TRIPOS>SUBSTRUCTURE
     1 ZINC000854704989        1 TEMP              0 ****  ****    0 ROOT


##########                                Name:    ZINC000948289723
##########                DOCK_Rotatable_Bonds:                   6
##########                         Heavy_Atoms:                  24
##########                    Molecular_Weight:             331.415
##########                DOCK_Rotatable_Bonds:                   6
##########                       Formal_Charge:           0.0599999
##########                     HBond_Acceptors:                   6
##########                        HBond_Donors:                   1
##########                         Heavy_Atoms:                  24
##########                          Grid_Score:          -29.645300
##########                     Grid_vdw_energy:          -28.335596
##########                      Grid_es_energy:           -1.309704
##########           Internal_energy_repulsive:            7.973661

@<TRIPOS>MOLECULE
ZINC000948289723
 49 52 1 0 0
SMALL
USER_CHARGES


@<TRIPOS>ATOM
      1 C1          1.0585    2.0504   47.6885 C.3     1  ZINC000948289723   -0.1400
      2 C2          0.5733    2.4127   49.0936 C.3     1  ZINC000948289723   -0.1100
      3 C3         -0.8684    2.9465   49.1289 C.3     1  ZINC000948289723   -0.1100
      4 C4         -1.0577    2.1246   50.4149 C.3     1  ZINC000948289723   -0.1400
      5 C5         -2.4004    1.4462   50.5055 C.2     1  ZINC000948289723    0.5400
      6 O6         -2.5828    0.3854   49.9467 O.2     1  ZINC000948289723   -0.5300
      7 N7         -3.3984    2.0185   51.2075 N.am    1  ZINC000948289723   -0.6200
      8 C8         -3.3146    3.2961   51.9301 C.3     1  ZINC000948289723    0.1100
      9 C9         -4.6998    3.5596   52.5572 C.3     1  ZINC000948289723   -0.1100
     10 H10        -4.7232    3.2264   53.5948 H       1  ZINC000948289723    0.1000
     11 C11        -5.0659    5.0418   52.4584 C.3     1  ZINC000948289723   -0.1400
     12 C12        -5.6472    2.6967   51.6823 C.3     1  ZINC000948289723    0.1400
     13 H13        -5.9174    3.2205   50.7654 H       1  ZINC000948289723    0.1200
     14 N14        -6.8434    2.3054   52.4321 N.am    1  ZINC000948289723   -0.7100
     15 C15        -7.7326    1.4529   51.8854 C.2     1  ZINC000948289723    0.6100
     16 O16        -7.5413    1.0074   50.7704 O.2     1  ZINC000948289723   -0.5000
     17 C17        -8.9380    1.0603   52.6397 C.2     1  ZINC000948289723   -0.0900
     18 C18        -9.1806    1.2707   53.9697 C.2     1  ZINC000948289723   -0.1400
     19 C19       -10.4599    0.7072   54.1732 C.2     1  ZINC000948289723    0.0500
     20 C20       -11.2268    0.6583   55.4695 C.3     1  ZINC000948289723   -0.0900
     21 C21       -12.2373   -0.4763   55.6501 C.3     1  ZINC000948289723   -0.1600
     22 C22       -10.9203   -0.4937   56.4287 C.3     1  ZINC000948289723   -0.1600
     23 N23       -10.8470    0.2389   53.0224 N.2     1  ZINC000948289723   -0.3300
     24 O24       -10.0241    0.4277   52.1572 O.3     1  ZINC000948289723    0.1200
     25 C25        -4.7569    1.4701   51.3728 C.3     1  ZINC000948289723    0.0900
     26 C26         0.0628    1.2063   49.8992 C.3     1  ZINC000948289723   -0.1200
     27 H27         0.2386    1.6060   47.1243 H       1  ZINC000948289723    0.0600
     28 H28         1.4036    2.9506   47.1800 H       1  ZINC000948289723    0.0600
     29 H29         1.8790    1.3365   47.7603 H       1  ZINC000948289723    0.0600
     30 H30         1.2837    3.0334   49.6398 H       1  ZINC000948289723    0.0900
     31 H31        -0.9316    4.0234   49.2857 H       1  ZINC000948289723    0.0700
     32 H32        -1.4820    2.6022   48.2964 H       1  ZINC000948289723    0.1000
     33 H33        -0.7959    2.6679   51.3228 H       1  ZINC000948289723    0.1100
     34 H34        -2.5596    3.2302   52.7134 H       1  ZINC000948289723    0.0800
     35 H35        -3.0631    4.0985   51.2365 H       1  ZINC000948289723    0.0800
     36 H36        -5.0661    5.3470   51.4120 H       1  ZINC000948289723    0.0600
     37 H37        -6.0571    5.2005   52.8833 H       1  ZINC000948289723    0.0600
     38 H38        -4.3353    5.6340   53.0094 H       1  ZINC000948289723    0.0700
     39 H39        -6.9954    2.6599   53.3222 H       1  ZINC000948289723    0.4100
     40 H40        -8.5428    1.7542   54.6948 H       1  ZINC000948289723    0.1800
     41 H41       -11.4724    1.6258   55.9073 H       1  ZINC000948289723    0.1300
     42 H42       -13.1480   -0.2554   56.2067 H       1  ZINC000948289723    0.1100
     43 H43       -12.3473   -1.1873   54.8313 H       1  ZINC000948289723    0.1000
     44 H44       -10.1639   -1.2161   56.1220 H       1  ZINC000948289723    0.1000
     45 H45       -10.9645   -0.2842   57.4974 H       1  ZINC000948289723    0.1100
     46 H46        -5.0874    0.9833   50.4552 H       1  ZINC000948289723    0.0900
     47 H47        -4.7776    0.7666   52.2051 H       1  ZINC000948289723    0.0800
     48 H48        -0.2962    0.3863   49.2772 H       1  ZINC000948289723    0.0900
     49 H49         0.7514    0.8782   50.6778 H       1  ZINC000948289723    0.0800
@<TRIPOS>BOND
     1     1     2    1
     2     1    27    1
     3     1    28    1
     4     1    29    1
     5     2    26    1
     6     2     3    1
     7     2    30    1
     8     3     4    1
     9     3    31    1
    10     3    32    1
    11     4     5    1
    12     4    26    1
    13     4    33    1
    14     5     6    2
    15     5     7   am
    16     7    25    1
    17     7     8    1
    18     8     9    1
    19     8    34    1
    20     8    35    1
    21     9    10    1
    22     9    11    1
    23     9    12    1
    24    11    36    1
    25    11    37    1
    26    11    38    1
    27    12    13    1
    28    12    14    1
    29    12    25    1
    30    14    15   am
    31    14    39    1
    32    15    16    2
    33    15    17    1
    34    17    24    1
    35    17    18    2
    36    18    19    1
    37    18    40    1
    38    19    20    1
    39    19    23    2
    40    20    22    1
    41    20    21    1
    42    20    41    1
    43    21    22    1
    44    21    42    1
    45    21    43    1
    46    22    44    1
    47    22    45    1
    48    23    24    1
    49    25    46    1
    50    25    47    1
    51    26    48    1
    52    26    49    1
@<TRIPOS>SUBSTRUCTURE
     1 ZINC000948289723        1 TEMP              0 ****  ****    0 ROOT


##########                                Name:    ZINC000542980334
##########                DOCK_Rotatable_Bonds:                   6
##########                         Heavy_Atoms:                  27
##########                    Molecular_Weight:             404.795
##########                DOCK_Rotatable_Bonds:                   6
##########                       Formal_Charge:           0.0300001
##########                     HBond_Acceptors:                  10
##########                        HBond_Donors:                   1
##########                         Heavy_Atoms:                  27
##########                          Grid_Score:          -29.633181
##########                     Grid_vdw_energy:          -28.645969
##########                      Grid_es_energy:           -0.987212
##########           Internal_energy_repulsive:           12.690592

@<TRIPOS>MOLECULE
ZINC000542980334
 44 46 1 0 0
SMALL
USER_CHARGES


@<TRIPOS>ATOM
      1 O1          0.2159    1.1722   49.5629 O.2     1  ZINC000542980334   -0.5800
      2 C2         -0.6119    1.5308   48.7477 C.2     1  ZINC000542980334    0.7100
      3 N3         -1.9082    1.6305   49.1028 N.am    1  ZINC000542980334   -0.7400
      4 C4         -2.3208    1.3010   50.4694 C.3     1  ZINC000542980334    0.1800
      5 C5         -3.5453    2.1015   50.8313 C.ar    1  ZINC000542980334   -0.1400
      6 C6         -3.4139    3.4078   51.2696 C.ar    1  ZINC000542980334    0.1300
      7 F7         -2.1879    3.9660   51.3732 F       1  ZINC000542980334   -0.1200
      8 C8         -4.5399    4.1426   51.6013 C.ar    1  ZINC000542980334   -0.1500
      9 C9         -5.7938    3.5715   51.4948 C.ar    1  ZINC000542980334   -0.0700
     10 C10        -5.9249    2.2668   51.0571 C.ar    1  ZINC000542980334   -0.1200
     11 C11        -4.8015    1.5330   50.7202 C.ar    1  ZINC000542980334    0.0100
     12 Cl12       -4.9674   -0.1050   50.1701 Cl      1  ZINC000542980334   -0.0400
     13 N13        -0.2323    1.8340   47.4905 N.am    1  ZINC000542980334   -0.6300
     14 C14        -1.2200    2.2745   46.4961 C.3     1  ZINC000542980334    0.1100
     15 C15        -1.0998    1.3854   45.2544 C.3     1  ZINC000542980334   -0.1300
     16 C16         0.3468    1.4060   44.7554 C.3     1  ZINC000542980334   -0.1300
     17 C17         1.2705    0.8478   45.8404 C.3     1  ZINC000542980334    0.1400
     18 H18         0.9659   -0.1686   46.0901 H       1  ZINC000542980334    0.1100
     19 N19         2.6509    0.8379   45.3498 N.pl3   1  ZINC000542980334   -0.3400
     20 C20         3.0353    0.6981   44.0637 C.2     1  ZINC000542980334    0.0600
     21 C21         4.3874    0.7417   44.0304 C.2     1  ZINC000542980334   -0.2300
     22 C22         4.8449    0.9141   45.3409 C.2     1  ZINC000542980334   -0.0200
     23 C23         6.2867    1.0157   45.7673 C.3     1  ZINC000542980334    0.5600
     24 F24         6.3799    1.8196   46.9084 F       1  ZINC000542980334   -0.1700
     25 F25         6.7790   -0.2619   46.0554 F       1  ZINC000542980334   -0.1700
     26 F26         7.0397    1.5835   44.7340 F       1  ZINC000542980334   -0.1600
     27 N27         3.8046    0.9779   46.1318 N.2     1  ZINC000542980334   -0.2300
     28 C28         1.1779    1.7362   47.0903 C.3     1  ZINC000542980334    0.1300
     29 H29        -2.5680    1.9204   48.4536 H       1  ZINC000542980334    0.4000
     30 H30        -2.5502    0.2374   50.5331 H       1  ZINC000542980334    0.0900
     31 H31        -1.5128    1.5404   51.1606 H       1  ZINC000542980334    0.0900
     32 H32        -4.4382    5.1618   51.9437 H       1  ZINC000542980334    0.1500
     33 H33        -6.6716    4.1447   51.7539 H       1  ZINC000542980334    0.1500
     34 H34        -6.9052    1.8213   50.9745 H       1  ZINC000542980334    0.1500
     35 H35        -2.2232    2.1859   46.9133 H       1  ZINC000542980334    0.0800
     36 H36        -1.0261    3.3118   46.2229 H       1  ZINC000542980334    0.0800
     37 H37        -1.3821    0.3640   45.5096 H       1  ZINC000542980334    0.0800
     38 H38        -1.7598    1.7612   44.4726 H       1  ZINC000542980334    0.0900
     39 H39         0.4299    0.7936   43.8574 H       1  ZINC000542980334    0.0800
     40 H40         0.6365    2.4309   44.5238 H       1  ZINC000542980334    0.0800
     41 H41         2.3811    0.5734   43.2135 H       1  ZINC000542980334    0.1900
     42 H42         5.0043    0.6577   43.1479 H       1  ZINC000542980334    0.1600
     43 H43         1.5685    2.7282   46.8633 H       1  ZINC000542980334    0.0800
     44 H44         1.7561    1.2900   47.8994 H       1  ZINC000542980334    0.1100
@<TRIPOS>BOND
     1     1     2    2
     2     2     3   am
     3     2    13   am
     4     3     4    1
     5     3    29    1
     6     4     5    1
     7     4    30    1
     8     4    31    1
     9     5    11   ar
    10     5     6   ar
    11     6     7    1
    12     6     8   ar
    13     8     9   ar
    14     8    32    1
    15     9    10   ar
    16     9    33    1
    17    10    11   ar
    18    10    34    1
    19    11    12    1
    20    13    28    1
    21    13    14    1
    22    14    15    1
    23    14    35    1
    24    14    36    1
    25    15    16    1
    26    15    37    1
    27    15    38    1
    28    16    17    1
    29    16    39    1
    30    16    40    1
    31    17    18    1
    32    17    19    1
    33    17    28    1
    34    19    27    1
    35    19    20    1
    36    20    21    2
    37    20    41    1
    38    21    22    1
    39    21    42    1
    40    22    23    1
    41    22    27    2
    42    23    24    1
    43    23    25    1
    44    23    26    1
    45    28    43    1
    46    28    44    1
@<TRIPOS>SUBSTRUCTURE
     1 ZINC000542980334        1 TEMP              0 ****  ****    0 ROOT


##########                                Name:    ZINC000001174632
##########                DOCK_Rotatable_Bonds:                   6
##########                         Heavy_Atoms:                  29
##########                    Molecular_Weight:             385.419
##########                DOCK_Rotatable_Bonds:                   6
##########                       Formal_Charge:           0.0400005
##########                     HBond_Acceptors:                   5
##########                        HBond_Donors:                   1
##########                         Heavy_Atoms:                  29
##########                          Grid_Score:          -29.628384
##########                     Grid_vdw_energy:          -30.034550
##########                      Grid_es_energy:            0.406166
##########           Internal_energy_repulsive:           18.461185

@<TRIPOS>MOLECULE
ZINC000001174632
 48 51 1 0 0
SMALL
USER_CHARGES


@<TRIPOS>ATOM
      1 C1          3.6581    0.1501   51.2843 C.3     1  ZINC000001174632    0.0400
      2 O2          2.8170    0.3416   50.1164 O.3     1  ZINC000001174632   -0.3500
      3 C3          1.6000    0.8832   50.3211 C.2     1  ZINC000001174632    0.5200
      4 O4          1.2307    1.1384   51.4502 O.2     1  ZINC000001174632   -0.5200
      5 C5          0.7173    1.1658   49.1755 C.ar    1  ZINC000001174632   -0.2000
      6 C6          1.2494    1.2771   47.8887 C.ar    1  ZINC000001174632   -0.0200
      7 C7          0.4181    1.5411   46.8214 C.ar    1  ZINC000001174632   -0.1800
      8 C8         -0.9447    1.6970   47.0169 C.ar    1  ZINC000001174632   -0.0300
      9 C9         -1.4862    1.5904   48.2820 C.ar    1  ZINC000001174632   -0.1900
     10 C10        -0.6655    1.3190   49.3697 C.ar    1  ZINC000001174632    0.2600
     11 N11        -1.2078    1.2109   50.6435 N.pl3   1  ZINC000001174632   -0.6500
     12 C12        -2.3255    1.9319   50.9763 C.2     1  ZINC000001174632    0.2300
     13 C13        -2.3269    3.2126   51.4946 C.2     1  ZINC000001174632   -0.1800
     14 C14        -1.1288    4.0322   51.7822 C.ar    1  ZINC000001174632   -0.0600
     15 C15        -0.3275    3.7367   52.8861 C.ar    1  ZINC000001174632   -0.0600
     16 C16         0.7883    4.5029   53.1507 C.ar    1  ZINC000001174632   -0.1500
     17 C17         1.1145    5.5670   52.3212 C.ar    1  ZINC000001174632    0.1400
     18 O18         2.2152    6.3199   52.5856 O.3     1  ZINC000001174632   -0.3200
     19 C19         3.0946    5.8468   53.6078 C.3     1  ZINC000001174632    0.0300
     20 C20         0.3202    5.8642   51.2223 C.ar    1  ZINC000001174632   -0.2100
     21 C21        -0.7938    5.0991   50.9472 C.ar    1  ZINC000001174632   -0.0500
     22 C22        -3.7205    3.6218   51.7107 C.2     1  ZINC000001174632    0.4500
     23 O23        -4.1006    4.6873   52.1553 O.2     1  ZINC000001174632   -0.4100
     24 C24        -4.5797    2.4840   51.2815 C.ar    1  ZINC000001174632   -0.1600
     25 C25        -5.9493    2.2997   51.2571 C.ar    1  ZINC000001174632   -0.0500
     26 C26        -6.4794    1.1004   50.7915 C.ar    1  ZINC000001174632   -0.1100
     27 C27        -5.6436    0.0955   50.3550 C.ar    1  ZINC000001174632   -0.0900
     28 C28        -4.2648    0.2698   50.3751 C.ar    1  ZINC000001174632   -0.0800
     29 C29        -3.7243    1.4632   50.8310 C.ar    1  ZINC000001174632   -0.0600
     30 H30         3.1566   -0.5141   51.9883 H       1  ZINC000001174632    0.0700
     31 H31         4.6068   -0.2923   50.9803 H       1  ZINC000001174632    0.1100
     32 H32         3.8424    1.1128   51.7612 H       1  ZINC000001174632    0.0700
     33 H33         2.3109    1.1569   47.7304 H       1  ZINC000001174632    0.1400
     34 H34         0.8315    1.6273   45.8273 H       1  ZINC000001174632    0.1300
     35 H35        -1.5874    1.9037   46.1740 H       1  ZINC000001174632    0.1300
     36 H36        -2.5493    1.7140   48.4260 H       1  ZINC000001174632    0.1300
     37 H37        -0.7958    0.6252   51.2979 H       1  ZINC000001174632    0.4300
     38 H38        -0.5810    2.9093   53.5323 H       1  ZINC000001174632    0.1300
     39 H39         1.4088    4.2749   54.0047 H       1  ZINC000001174632    0.1300
     40 H40         2.5524    5.7793   54.5509 H       1  ZINC000001174632    0.0600
     41 H41         3.4723    4.8614   53.3346 H       1  ZINC000001174632    0.0600
     42 H42         3.9297    6.5385   53.7175 H       1  ZINC000001174632    0.1000
     43 H43         0.5771    6.6932   50.5796 H       1  ZINC000001174632    0.1300
     44 H44        -1.4111    5.3307   50.0918 H       1  ZINC000001174632    0.1300
     45 H45        -6.6070    3.0851   51.5991 H       1  ZINC000001174632    0.1400
     46 H46        -7.5496    0.9565   50.7724 H       1  ZINC000001174632    0.1400
     47 H47        -6.0622   -0.8329   49.9957 H       1  ZINC000001174632    0.1400
     48 H48        -3.6150   -0.5215   50.0317 H       1  ZINC000001174632    0.1300
@<TRIPOS>BOND
     1     1     2    1
     2     1    30    1
     3     1    31    1
     4     1    32    1
     5     2     3    1
     6     3     4    2
     7     3     5    1
     8     5    10   ar
     9     5     6   ar
    10     6     7   ar
    11     6    33    1
    12     7     8   ar
    13     7    34    1
    14     8     9   ar
    15     8    35    1
    16     9    10   ar
    17     9    36    1
    18    10    11    1
    19    11    12    1
    20    11    37    1
    21    12    29    1
    22    12    13    2
    23    13    14    1
    24    13    22    1
    25    14    21   ar
    26    14    15   ar
    27    15    16   ar
    28    15    38    1
    29    16    17   ar
    30    16    39    1
    31    17    18    1
    32    17    20   ar
    33    18    19    1
    34    19    40    1
    35    19    41    1
    36    19    42    1
    37    20    21   ar
    38    20    43    1
    39    21    44    1
    40    22    23    2
    41    22    24    1
    42    24    29   ar
    43    24    25   ar
    44    25    26   ar
    45    25    45    1
    46    26    27   ar
    47    26    46    1
    48    27    28   ar
    49    27    47    1
    50    28    29   ar
    51    28    48    1
@<TRIPOS>SUBSTRUCTURE
     1 ZINC000001174632        1 TEMP              0 ****  ****    0 ROOT


##########                                Name:    ZINC000065993627
##########                DOCK_Rotatable_Bonds:                   7
##########                         Heavy_Atoms:                  28
##########                    Molecular_Weight:             382.462
##########                DOCK_Rotatable_Bonds:                   7
##########                       Formal_Charge:          -0.0200002
##########                     HBond_Acceptors:                   7
##########                        HBond_Donors:                   2
##########                         Heavy_Atoms:                  28
##########                          Grid_Score:          -29.621313
##########                     Grid_vdw_energy:          -29.497576
##########                      Grid_es_energy:           -0.123737
##########           Internal_energy_repulsive:           37.246750

@<TRIPOS>MOLECULE
ZINC000065993627
 54 56 1 0 0
SMALL
USER_CHARGES


@<TRIPOS>ATOM
      1 C1         -2.3659    3.6942   51.4457 C.3     1  ZINC000065993627   -0.1200
      2 C2         -3.5673    2.7980   51.2892 C.ar    1  ZINC000065993627   -0.0700
      3 C3         -4.8107    3.2320   51.7034 C.ar    1  ZINC000065993627   -0.1800
      4 C4         -5.9181    2.4059   51.5591 C.ar    1  ZINC000065993627    0.2000
      5 N5         -7.1784    2.8457   51.9783 N.pl3   1  ZINC000065993627   -0.6400
      6 C6         -7.9718    3.7248   51.1158 C.3     1  ZINC000065993627    0.1000
      7 C7         -7.7048    2.4269   53.2798 C.3     1  ZINC000065993627    0.0900
      8 C8         -5.7741    1.1438   50.9984 C.ar    1  ZINC000065993627   -0.1800
      9 C9         -4.5301    0.7101   50.5844 C.ar    1  ZINC000065993627   -0.0800
     10 C10        -3.4246    1.5381   50.7234 C.ar    1  ZINC000065993627    0.1100
     11 N11        -2.1618    1.0977   50.3026 N.am    1  ZINC000065993627   -0.6800
     12 C12        -1.7645    1.3062   49.0317 C.2     1  ZINC000065993627    0.7000
     13 O13        -2.5011    1.8761   48.2501 O.2     1  ZINC000065993627   -0.5700
     14 N14        -0.5505    0.8828   48.6272 N.am    1  ZINC000065993627   -0.7400
     15 C15        -0.1179    1.1110   47.2463 C.3     1  ZINC000065993627    0.2100
     16 H16        -0.8722    0.7248   46.5607 H       1  ZINC000065993627    0.1000
     17 C17         1.2097    0.3908   47.0021 C.3     1  ZINC000065993627   -0.1600
     18 C18         0.0624    2.5890   47.0139 C.ar    1  ZINC000065993627   -0.1200
     19 C19        -0.3351    3.1526   45.8154 C.ar    1  ZINC000065993627   -0.0800
     20 C20        -0.1711    4.5069   45.5993 C.ar    1  ZINC000065993627   -0.1500
     21 C21         0.3936    5.3026   46.5873 C.ar    1  ZINC000065993627    0.1800
     22 N22         0.5607    6.6753   46.3717 N.am    1  ZINC000065993627   -0.5700
     23 C23         0.1788    7.4024   45.1515 C.3     1  ZINC000065993627    0.0600
     24 C24         0.5811    8.8593   45.4512 C.3     1  ZINC000065993627    0.0400
     25 O25         1.1418    8.8011   46.7948 O.3     1  ZINC000065993627   -0.3200
     26 C26         1.0898    7.5426   47.2457 C.2     1  ZINC000065993627    0.6400
     27 O27         1.4936    7.2144   48.3437 O.2     1  ZINC000065993627   -0.5000
     28 C28         0.7917    4.7337   47.7899 C.ar    1  ZINC000065993627   -0.1500
     29 C29         0.6199    3.3797   48.0019 C.ar    1  ZINC000065993627   -0.0800
     30 H30        -2.2520    4.3084   50.5525 H       1  ZINC000065993627    0.0700
     31 H31        -2.5036    4.3381   52.3143 H       1  ZINC000065993627    0.0700
     32 H32        -1.4731    3.0843   51.5835 H       1  ZINC000065993627    0.0600
     33 H33        -4.9224    4.2136   52.1398 H       1  ZINC000065993627    0.1200
     34 H34        -8.6015    3.1209   50.4624 H       1  ZINC000065993627    0.0500
     35 H35        -8.5996    4.3684   51.7320 H       1  ZINC000065993627    0.0700
     36 H36        -7.3046    4.3392   50.5112 H       1  ZINC000065993627    0.0700
     37 H37        -6.9449    1.8546   53.8119 H       1  ZINC000065993627    0.0800
     38 H38        -7.9719    3.3074   53.8640 H       1  ZINC000065993627    0.0500
     39 H39        -8.5891    1.8071   53.1317 H       1  ZINC000065993627    0.0500
     40 H40        -6.6349    0.5012   50.8865 H       1  ZINC000065993627    0.1300
     41 H41        -4.4181   -0.2716   50.1483 H       1  ZINC000065993627    0.1500
     42 H42        -1.5741    0.6431   50.9261 H       1  ZINC000065993627    0.4000
     43 H43         0.0367    0.4271   49.2503 H       1  ZINC000065993627    0.4000
     44 H44         1.0793   -0.6783   47.1701 H       1  ZINC000065993627    0.0700
     45 H45         1.5317    0.5605   45.9747 H       1  ZINC000065993627    0.0700
     46 H46         1.9641    0.7769   47.6877 H       1  ZINC000065993627    0.0600
     47 H47        -0.7739    2.5330   45.0472 H       1  ZINC000065993627    0.1300
     48 H48        -0.4814    4.9464   44.6630 H       1  ZINC000065993627    0.1600
     49 H49         0.7295    7.0224   44.2911 H       1  ZINC000065993627    0.1000
     50 H50        -0.8955    7.3289   44.9825 H       1  ZINC000065993627    0.1000
     51 H51         1.3310    9.2029   44.7388 H       1  ZINC000065993627    0.1100
     52 H52        -0.2936    9.5094   45.4300 H       1  ZINC000065993627    0.1100
     53 H53         1.2316    5.3499   48.5600 H       1  ZINC000065993627    0.1300
     54 H54         0.9291    2.9367   48.9370 H       1  ZINC000065993627    0.1300
@<TRIPOS>BOND
     1     1     2    1
     2     1    30    1
     3     1    31    1
     4     1    32    1
     5     2    10   ar
     6     2     3   ar
     7     3     4   ar
     8     3    33    1
     9     4     5    1
    10     4     8   ar
    11     5     6    1
    12     5     7    1
    13     6    34    1
    14     6    35    1
    15     6    36    1
    16     7    37    1
    17     7    38    1
    18     7    39    1
    19     8     9   ar
    20     8    40    1
    21     9    10   ar
    22     9    41    1
    23    10    11    1
    24    11    12   am
    25    11    42    1
    26    12    13    2
    27    12    14   am
    28    14    15    1
    29    14    43    1
    30    15    16    1
    31    15    17    1
    32    15    18    1
    33    17    44    1
    34    17    45    1
    35    17    46    1
    36    18    29   ar
    37    18    19   ar
    38    19    20   ar
    39    19    47    1
    40    20    21   ar
    41    20    48    1
    42    21    22    1
    43    21    28   ar
    44    22    26   am
    45    22    23    1
    46    23    24    1
    47    23    49    1
    48    23    50    1
    49    24    25    1
    50    24    51    1
    51    24    52    1
    52    25    26    1
    53    26    27    2
    54    28    29   ar
    55    28    53    1
    56    29    54    1
@<TRIPOS>SUBSTRUCTURE
     1 ZINC000065993627        1 TEMP              0 ****  ****    0 ROOT


##########                                Name:    ZINC001009984555
##########                DOCK_Rotatable_Bonds:                   7
##########                         Heavy_Atoms:                  23
##########                    Molecular_Weight:             338.446
##########                DOCK_Rotatable_Bonds:                   7
##########                       Formal_Charge:           0.0400002
##########                     HBond_Acceptors:                   6
##########                        HBond_Donors:                   1
##########                         Heavy_Atoms:                  23
##########                          Grid_Score:          -29.618429
##########                     Grid_vdw_energy:          -27.727972
##########                      Grid_es_energy:           -1.890458
##########           Internal_energy_repulsive:           11.540516

@<TRIPOS>MOLECULE
ZINC001009984555
 46 47 1 0 0
SMALL
USER_CHARGES


@<TRIPOS>ATOM
      1 C1         -0.2758    0.9439   44.6669 C.3     1  ZINC001009984555   -0.1400
      2 S2          1.2511    1.0445   45.6411 S.3     1  ZINC001009984555   -0.1800
      3 C3          0.6463    1.0234   47.3511 C.3     1  ZINC001009984555   -0.1300
      4 C4          1.8156    1.1011   48.2986 C.2     1  ZINC001009984555    0.5500
      5 O5          2.8826    0.6167   47.9860 O.2     1  ZINC001009984555   -0.5100
      6 N6          1.6757    1.7090   49.4934 N.am    1  ZINC001009984555   -0.6100
      7 C7          0.4391    2.3300   50.0018 C.3     1  ZINC001009984555    0.1000
      8 C8          0.5894    2.3086   51.5434 C.3     1  ZINC001009984555   -0.1100
      9 H9          0.3277    1.3309   51.9480 H       1  ZINC001009984555    0.1000
     10 C10        -0.2514    3.4102   52.1917 C.3     1  ZINC001009984555    0.1300
     11 N11        -1.6246    2.9331   52.3737 N.am    1  ZINC001009984555   -0.7300
     12 C12        -2.5676    3.2284   51.4571 C.2     1  ZINC001009984555    0.5600
     13 O13        -2.2784    3.8895   50.4790 O.2     1  ZINC001009984555   -0.5200
     14 C14        -3.9538    2.7484   51.6416 C.ar    1  ZINC001009984555   -0.1200
     15 C15        -4.8453    3.4705   52.4362 C.ar    1  ZINC001009984555   -0.0900
     16 C16        -6.1379    3.0182   52.6052 C.ar    1  ZINC001009984555   -0.1000
     17 C17        -6.5521    1.8512   51.9895 C.ar    1  ZINC001009984555   -0.1200
     18 C18        -5.6727    1.1284   51.1989 C.ar    1  ZINC001009984555    0.0900
     19 F19        -6.0840   -0.0109   50.6004 F       1  ZINC001009984555   -0.1300
     20 C20        -4.3776    1.5745   51.0171 C.ar    1  ZINC001009984555   -0.0500
     21 C21        -3.4216    0.7885   50.1573 C.3     1  ZINC001009984555   -0.1200
     22 C22         2.1054    2.5927   51.7125 C.3     1  ZINC001009984555   -0.1200
     23 C23         2.7292    1.8569   50.5081 C.3     1  ZINC001009984555    0.1400
     24 H24         3.5508    2.4452   50.0992 H       1  ZINC001009984555    0.0800
     25 C25         3.2409    0.4830   50.9457 C.3     1  ZINC001009984555   -0.1700
     26 H26        -0.9107    1.7993   44.8972 H       1  ZINC001009984555    0.0800
     27 H27        -0.0302    0.9492   43.6050 H       1  ZINC001009984555    0.1100
     28 H28        -0.8038    0.0227   44.9132 H       1  ZINC001009984555    0.0800
     29 H29        -0.0111    1.8773   47.5146 H       1  ZINC001009984555    0.1100
     30 H30         0.0945    0.1005   47.5300 H       1  ZINC001009984555    0.1100
     31 H31         0.3545    3.3558   49.6431 H       1  ZINC001009984555    0.0800
     32 H32        -0.4307    1.7478   49.6973 H       1  ZINC001009984555    0.0800
     33 H33         0.1745    3.6695   53.1611 H       1  ZINC001009984555    0.0800
     34 H34        -0.2548    4.2905   51.5491 H       1  ZINC001009984555    0.0800
     35 H35        -1.8551    2.4046   53.1537 H       1  ZINC001009984555    0.4000
     36 H36        -4.5238    4.3818   52.9185 H       1  ZINC001009984555    0.1300
     37 H37        -6.8280    3.5769   53.2201 H       1  ZINC001009984555    0.1400
     38 H38        -7.5648    1.5013   52.1258 H       1  ZINC001009984555    0.1400
     39 H39        -3.4010    1.2144   49.1542 H       1  ZINC001009984555    0.0800
     40 H40        -2.4227    0.8322   50.5912 H       1  ZINC001009984555    0.1000
     41 H41        -3.7497   -0.2496   50.1046 H       1  ZINC001009984555    0.0600
     42 H42         2.3053    3.6630   51.6609 H       1  ZINC001009984555    0.0900
     43 H43         2.4738    2.1752   52.6496 H       1  ZINC001009984555    0.0900
     44 H44         2.4112   -0.1060   51.3367 H       1  ZINC001009984555    0.0600
     45 H45         3.6799   -0.0305   50.0904 H       1  ZINC001009984555    0.0700
     46 H46         3.9960    0.6069   51.7220 H       1  ZINC001009984555    0.0700
@<TRIPOS>BOND
     1     1     2    1
     2     1    26    1
     3     1    27    1
     4     1    28    1
     5     2     3    1
     6     3     4    1
     7     3    29    1
     8     3    30    1
     9     4     5    2
    10     4     6   am
    11     6    23    1
    12     6     7    1
    13     7     8    1
    14     7    31    1
    15     7    32    1
    16     8     9    1
    17     8    10    1
    18     8    22    1
    19    10    11    1
    20    10    33    1
    21    10    34    1
    22    11    12   am
    23    11    35    1
    24    12    13    2
    25    12    14    1
    26    14    20   ar
    27    14    15   ar
    28    15    16   ar
    29    15    36    1
    30    16    17   ar
    31    16    37    1
    32    17    18   ar
    33    17    38    1
    34    18    19    1
    35    18    20   ar
    36    20    21    1
    37    21    39    1
    38    21    40    1
    39    21    41    1
    40    22    23    1
    41    22    42    1
    42    22    43    1
    43    23    24    1
    44    23    25    1
    45    25    44    1
    46    25    45    1
    47    25    46    1
@<TRIPOS>SUBSTRUCTURE
     1 ZINC001009984555        1 TEMP              0 ****  ****    0 ROOT


##########                                Name:    ZINC001002468398
##########                DOCK_Rotatable_Bonds:                   7
##########                         Heavy_Atoms:                  24
##########                    Molecular_Weight:             341.358
##########                DOCK_Rotatable_Bonds:                   7
##########                       Formal_Charge:           0.0100001
##########                     HBond_Acceptors:                   8
##########                        HBond_Donors:                   0
##########                         Heavy_Atoms:                  24
##########                          Grid_Score:          -29.595604
##########                     Grid_vdw_energy:          -28.696444
##########                      Grid_es_energy:           -0.899161
##########           Internal_energy_repulsive:           26.703661

@<TRIPOS>MOLECULE
ZINC001002468398
 45 47 1 0 0
SMALL
USER_CHARGES


@<TRIPOS>ATOM
      1 C1          0.0826    3.3367   43.6577 C.3     1  ZINC001002468398   -0.1400
      2 C2         -0.3290    2.3400   44.7432 C.3     1  ZINC001002468398   -0.0500
      3 C3          0.9036    1.7884   45.4121 C.2     1  ZINC001002468398    0.0500
      4 C4          0.9937    1.3250   46.6885 C.2     1  ZINC001002468398   -0.0800
      5 C5         -0.0970    1.2677   47.6786 C.2     1  ZINC001002468398    0.6000
      6 O6         -1.2536    1.2138   47.3066 O.2     1  ZINC001002468398   -0.5300
      7 N7          0.1875    1.2752   48.9960 N.am    1  ZINC001002468398   -0.6000
      8 C8          1.5808    1.3403   49.4440 C.3     1  ZINC001002468398    0.0900
      9 C9         -0.8964    1.2182   49.9797 C.3     1  ZINC001002468398    0.1000
     10 C10        -1.5174    2.6079   50.1353 C.3     1  ZINC001002468398    0.1300
     11 H11        -1.7045    3.0423   49.1533 H       1  ZINC001002468398    0.0800
     12 C12        -0.5679    3.5199   50.9405 C.3     1  ZINC001002468398   -0.1300
     13 C13        -1.5425    4.3427   51.8239 C.3     1  ZINC001002468398   -0.1300
     14 C14        -2.6420    3.2960   52.1320 C.3     1  ZINC001002468398    0.1000
     15 N15        -2.7770    2.5114   50.8874 N.am    1  ZINC001002468398   -0.6100
     16 C16        -3.8713    1.8221   50.5083 C.2     1  ZINC001002468398    0.5600
     17 O17        -3.8700    1.2106   49.4608 O.2     1  ZINC001002468398   -0.5100
     18 C18        -5.0964    1.8108   51.3858 C.3     1  ZINC001002468398   -0.2000
     19 H19        -4.9129    1.9518   52.4510 H       1  ZINC001002468398    0.1500
     20 C20        -6.2452    0.8839   50.9835 C.3     1  ZINC001002468398   -0.1500
     21 C21        -6.3853    2.3980   50.8073 C.3     1  ZINC001002468398    0.2300
     22 F22        -7.2385    3.0744   51.6858 F       1  ZINC001002468398   -0.1500
     23 F23        -6.3366    2.9039   49.5038 F       1  ZINC001002468398   -0.1400
     24 N24         2.2800    0.9239   46.8787 N.2     1  ZINC001002468398   -0.4600
     25 C25         2.9424    1.1299   45.7800 C.2     1  ZINC001002468398    0.1700
     26 O26         2.1204    1.6553   44.8606 O.3     1  ZINC001002468398   -0.2000
     27 H27         0.6470    4.1528   44.1090 H       1  ZINC001002468398    0.0600
     28 H28         0.7029    2.8318   42.9172 H       1  ZINC001002468398    0.0600
     29 H29        -0.8089    3.7357   43.1739 H       1  ZINC001002468398    0.0700
     30 H30        -0.9493    2.8448   45.4837 H       1  ZINC001002468398    0.1200
     31 H31        -0.8934    1.5240   44.2919 H       1  ZINC001002468398    0.0900
     32 H32         2.0234    2.2819   49.1190 H       1  ZINC001002468398    0.0700
     33 H33         1.6159    1.2786   50.5317 H       1  ZINC001002468398    0.0700
     34 H34         2.1398    0.5088   49.0148 H       1  ZINC001002468398    0.0700
     35 H35        -1.6581    0.5158   49.6410 H       1  ZINC001002468398    0.0900
     36 H36        -0.4990    0.8884   50.9396 H       1  ZINC001002468398    0.0900
     37 H37         0.1051    2.9260   51.5589 H       1  ZINC001002468398    0.1000
     38 H38        -0.0050    4.1742   50.2747 H       1  ZINC001002468398    0.0800
     39 H39        -1.0533    4.6764   52.7389 H       1  ZINC001002468398    0.0900
     40 H40        -1.9519    5.1882   51.2710 H       1  ZINC001002468398    0.0800
     41 H41        -2.3332    2.6526   52.9559 H       1  ZINC001002468398    0.0800
     42 H42        -3.5828    3.7927   52.3696 H       1  ZINC001002468398    0.0800
     43 H43        -6.1149    0.2822   50.0840 H       1  ZINC001002468398    0.1300
     44 H44        -6.8178    0.4154   51.7839 H       1  ZINC001002468398    0.1400
     45 H45         3.9887    0.9087   45.6299 H       1  ZINC001002468398    0.2600
@<TRIPOS>BOND
     1     1     2    1
     2     1    27    1
     3     1    28    1
     4     1    29    1
     5     2     3    1
     6     2    30    1
     7     2    31    1
     8     3    26    1
     9     3     4    2
    10     4     5    1
    11     4    24    1
    12     5     6    2
    13     5     7   am
    14     7     8    1
    15     7     9    1
    16     8    32    1
    17     8    33    1
    18     8    34    1
    19     9    10    1
    20     9    35    1
    21     9    36    1
    22    10    11    1
    23    10    15    1
    24    10    12    1
    25    12    13    1
    26    12    37    1
    27    12    38    1
    28    13    14    1
    29    13    39    1
    30    13    40    1
    31    14    15    1
    32    14    41    1
    33    14    42    1
    34    15    16   am
    35    16    17    2
    36    16    18    1
    37    18    19    1
    38    18    21    1
    39    18    20    1
    40    20    21    1
    41    20    43    1
    42    20    44    1
    43    21    22    1
    44    21    23    1
    45    24    25    2
    46    25    26    1
    47    25    45    1
@<TRIPOS>SUBSTRUCTURE
     1 ZINC001002468398        1 TEMP              0 ****  ****    0 ROOT


##########                                Name:    ZINC000269356812
##########                DOCK_Rotatable_Bonds:                  10
##########                         Heavy_Atoms:                  25
##########                    Molecular_Weight:             387.431
##########                DOCK_Rotatable_Bonds:                  10
##########                       Formal_Charge:          0.00999978
##########                     HBond_Acceptors:                  10
##########                        HBond_Donors:                   3
##########                         Heavy_Atoms:                  25
##########                          Grid_Score:          -29.590887
##########                     Grid_vdw_energy:          -28.510740
##########                      Grid_es_energy:           -1.080147
##########           Internal_energy_repulsive:            9.540200

@<TRIPOS>MOLECULE
ZINC000269356812
 40 41 1 0 0
SMALL
USER_CHARGES


@<TRIPOS>ATOM
      1 C1          1.0959    3.1623   45.6429 C.3     1  ZINC000269356812   -0.1400
      2 C2          1.6402    1.7412   45.4833 C.3     1  ZINC000269356812    0.2000
      3 O3          2.8725    1.7815   44.7608 O.3     1  ZINC000269356812   -0.5400
      4 C4          1.8788    1.1284   46.8647 C.3     1  ZINC000269356812    0.0900
      5 N5          0.7300    1.4102   47.7290 N.am    1  ZINC000269356812   -0.6900
      6 C6          0.8006    1.1507   49.0497 C.2     1  ZINC000269356812    0.5100
      7 O7          1.8153    0.6821   49.5226 O.2     1  ZINC000269356812   -0.5100
      8 C8         -0.3698    1.4396   49.9309 C.2     1  ZINC000269356812    0.5100
      9 O9         -0.2118    1.5653   51.1279 O.2     1  ZINC000269356812   -0.4900
     10 N10        -1.6015    1.5606   49.3974 N.am    1  ZINC000269356812   -0.6400
     11 C11        -2.6981    1.8313   50.2231 C.ar    1  ZINC000269356812    0.0900
     12 C12        -3.5911    0.8163   50.5660 C.ar    1  ZINC000269356812   -0.0600
     13 C13        -4.6602    1.1286   51.3846 C.ar    1  ZINC000269356812   -0.1200
     14 C14        -4.8094    2.4363   51.8364 C.ar    1  ZINC000269356812    0.1000
     15 S15        -6.1675    2.8476   52.8810 S.3     1  ZINC000269356812   -0.0600
     16 C16        -5.3637    3.6308   54.3060 C.3     1  ZINC000269356812    0.2900
     17 F17        -5.0664    4.9631   53.9996 F       1  ZINC000269356812   -0.1700
     18 F18        -6.2234    3.5866   55.4089 F       1  ZINC000269356812   -0.1700
     19 N19        -3.9415    3.3753   51.4906 N.ar    1  ZINC000269356812   -0.4600
     20 C20        -2.9073    3.1115   50.7156 C.ar    1  ZINC000269356812    0.1100
     21 C21         0.6418    0.9029   44.7274 C.2     1  ZINC000269356812   -0.2300
     22 C22        -0.6041    0.6440   45.1272 C.2     1  ZINC000269356812   -0.1100
     23 C23        -1.3397   -0.1516   44.2657 C.2     1  ZINC000269356812   -0.1400
     24 C24        -0.6912   -0.5386   43.1662 C.2     1  ZINC000269356812   -0.2000
     25 S25         0.9386    0.1227   43.1793 S.3     1  ZINC000269356812    0.1100
     26 H26         0.9260    3.5989   44.6587 H       1  ZINC000269356812    0.0800
     27 H27         0.1560    3.1316   46.1939 H       1  ZINC000269356812    0.0800
     28 H28         1.8181    3.7687   46.1896 H       1  ZINC000269356812    0.0700
     29 H29         3.1998    0.9120   44.4926 H       1  ZINC000269356812    0.3800
     30 H30         2.0041    0.0500   46.7670 H       1  ZINC000269356812    0.0900
     31 H31         2.7782    1.5604   47.3034 H       1  ZINC000269356812    0.0900
     32 H32        -0.0815    1.7835   47.3508 H       1  ZINC000269356812    0.4200
     33 H33        -1.7277    1.4600   48.4408 H       1  ZINC000269356812    0.4300
     34 H34        -3.4506   -0.1901   50.2002 H       1  ZINC000269356812    0.1600
     35 H35        -5.3712    0.3672   51.6697 H       1  ZINC000269356812    0.1500
     36 H36        -4.4425    3.0980   54.5418 H       1  ZINC000269356812    0.1500
     37 H37        -2.2203    3.9028   50.4543 H       1  ZINC000269356812    0.1700
     38 H38        -1.0083    1.0256   46.0532 H       1  ZINC000269356812    0.1500
     39 H39        -2.3612   -0.4376   44.4686 H       1  ZINC000269356812    0.1400
     40 H40        -1.1048   -1.1599   42.3857 H       1  ZINC000269356812    0.1700
@<TRIPOS>BOND
     1     1     2    1
     2     1    26    1
     3     1    27    1
     4     1    28    1
     5     2     3    1
     6     2     4    1
     7     2    21    1
     8     3    29    1
     9     4     5    1
    10     4    30    1
    11     4    31    1
    12     5     6   am
    13     5    32    1
    14     6     7    2
    15     6     8    1
    16     8     9    2
    17     8    10   am
    18    10    11    1
    19    10    33    1
    20    11    20   ar
    21    11    12   ar
    22    12    13   ar
    23    12    34    1
    24    13    14   ar
    25    13    35    1
    26    14    15    1
    27    14    19   ar
    28    15    16    1
    29    16    17    1
    30    16    18    1
    31    16    36    1
    32    19    20   ar
    33    20    37    1
    34    21    25    1
    35    21    22    2
    36    22    23    1
    37    22    38    1
    38    23    24    2
    39    23    39    1
    40    24    25    1
    41    24    40    1
@<TRIPOS>SUBSTRUCTURE
     1 ZINC000269356812        1 TEMP              0 ****  ****    0 ROOT


##########                                Name:    ZINC000676204775
##########                DOCK_Rotatable_Bonds:                   4
##########                         Heavy_Atoms:                  25
##########                    Molecular_Weight:             359.452
##########                DOCK_Rotatable_Bonds:                   4
##########                       Formal_Charge:          0.00999978
##########                     HBond_Acceptors:                   8
##########                        HBond_Donors:                   2
##########                         Heavy_Atoms:                  25
##########                          Grid_Score:          -29.588528
##########                     Grid_vdw_energy:          -29.269875
##########                      Grid_es_energy:           -0.318652
##########           Internal_energy_repulsive:            5.801079

@<TRIPOS>MOLECULE
ZINC000676204775
 46 49 1 0 0
SMALL
USER_CHARGES


@<TRIPOS>ATOM
      1 C1         -1.8557    2.1639   48.0839 C.3     1  ZINC000676204775   -0.1600
      2 C2         -1.6023    1.4811   49.4295 C.3     1  ZINC000676204775    0.1600
      3 C3         -0.1166    1.5821   49.7807 C.3     1  ZINC000676204775   -0.1600
      4 N4         -2.3958    2.1412   50.4691 N.pl3   1  ZINC000676204775   -0.3900
      5 N5         -1.9368    3.1498   51.3226 N.2     1  ZINC000676204775   -0.2500
      6 C6         -2.8893    3.5212   52.1294 C.2     1  ZINC000676204775    0.0900
      7 C7         -4.0728    2.7263   51.8177 C.ar    1  ZINC000676204775   -0.2100
      8 C8         -5.3722    2.6732   52.3335 C.ar    1  ZINC000676204775    0.0800
      9 C9         -6.2719    1.7918   51.8071 C.ar    1  ZINC000676204775   -0.7200
     10 S10        -7.9089    1.7242   52.4552 S.o2    1  ZINC000676204775    2.6900
     11 O11        -8.4018    0.4233   52.1655 O.2     1  ZINC000676204775   -0.9300
     12 O12        -7.8414    2.2543   53.7719 O.2     1  ZINC000676204775   -0.9600
     13 N13        -8.8295    2.7805   51.5726 N.am    1  ZINC000676204775   -1.1100
     14 C14        -8.4826    4.2035   51.5393 C.3     1  ZINC000676204775    0.2400
     15 H15        -7.6511    4.3951   52.2175 H       1  ZINC000676204775    0.1000
     16 C16        -9.6964    5.0419   51.9590 C.3     1  ZINC000676204775   -0.1200
     17 C17        -9.4172    6.5233   51.6961 C.3     1  ZINC000676204775   -0.1200
     18 C18        -9.4353    6.7935   50.1864 C.3     1  ZINC000676204775   -0.0400
     19 C19        -8.5365    5.7836   49.5164 C.2     1  ZINC000676204775   -0.2300
     20 C20        -8.0166    5.8225   48.2756 C.2     1  ZINC000676204775    0.0600
     21 N21        -7.2714    4.7069   48.1091 N.pl3   1  ZINC000676204775   -0.4800
     22 N22        -7.3404    3.9586   49.2941 N.2     1  ZINC000676204775   -0.2400
     23 C23        -8.0965    4.6008   50.1351 C.2     1  ZINC000676204775    0.0500
     24 C24        -5.9091    0.9478   50.7649 C.ar    1  ZINC000676204775    0.0100
     25 C25        -4.6463    0.9810   50.2445 C.ar    1  ZINC000676204775   -0.1500
     26 C26        -3.7086    1.8736   50.7574 C.ar    1  ZINC000676204775    0.1700
     27 H27        -2.9142    2.0920   47.8337 H       1  ZINC000676204775    0.0600
     28 H28        -1.5682    3.2132   48.1491 H       1  ZINC000676204775    0.0700
     29 H29        -1.2653    1.6728   47.3104 H       1  ZINC000676204775    0.0800
     30 H30        -1.8898    0.4318   49.3643 H       1  ZINC000676204775    0.1000
     31 H31         0.1709    2.6314   49.8459 H       1  ZINC000676204775    0.0700
     32 H32         0.0640    1.0957   50.7393 H       1  ZINC000676204775    0.0600
     33 H33         0.4738    1.0910   49.0072 H       1  ZINC000676204775    0.0800
     34 H34        -2.8164    4.2816   52.8929 H       1  ZINC000676204775    0.2000
     35 H35        -5.6618    3.3258   53.1437 H       1  ZINC000676204775    0.1500
     36 H36        -9.5985    2.4571   51.0775 H       1  ZINC000676204775    0.4200
     37 H37       -10.5685    4.7299   51.3845 H       1  ZINC000676204775    0.0800
     38 H38        -9.8905    4.8924   53.0211 H       1  ZINC000676204775    0.0800
     39 H39       -10.1828    7.1283   52.1819 H       1  ZINC000676204775    0.0700
     40 H40        -8.4390    6.7851   52.0997 H       1  ZINC000676204775    0.0700
     41 H41       -10.4516    6.6905   49.8065 H       1  ZINC000676204775    0.0700
     42 H42        -9.0683    7.8006   49.9886 H       1  ZINC000676204775    0.0700
     43 H43        -8.1675    6.6037   47.5453 H       1  ZINC000676204775    0.1800
     44 H44        -6.7760    4.4661   47.3106 H       1  ZINC000676204775    0.4400
     45 H45        -6.6343    0.2566   50.3614 H       1  ZINC000676204775    0.1500
     46 H46        -4.3772    0.3194   49.4344 H       1  ZINC000676204775    0.1300
@<TRIPOS>BOND
     1     1     2    1
     2     1    27    1
     3     1    28    1
     4     1    29    1
     5     2     3    1
     6     2     4    1
     7     2    30    1
     8     3    31    1
     9     3    32    1
    10     3    33    1
    11     4    26    1
    12     4     5    1
    13     5     6    2
    14     6     7    1
    15     6    34    1
    16     7    26   ar
    17     7     8   ar
    18     8     9   ar
    19     8    35    1
    20     9    10    1
    21     9    24   ar
    22    10    11    2
    23    10    12    2
    24    10    13   am
    25    13    14    1
    26    13    36    1
    27    14    15    1
    28    14    23    1
    29    14    16    1
    30    16    17    1
    31    16    37    1
    32    16    38    1
    33    17    18    1
    34    17    39    1
    35    17    40    1
    36    18    19    1
    37    18    41    1
    38    18    42    1
    39    19    23    1
    40    19    20    2
    41    20    21    1
    42    20    43    1
    43    21    22    1
    44    21    44    1
    45    22    23    2
    46    24    25   ar
    47    24    45    1
    48    25    26   ar
    49    25    46    1
@<TRIPOS>SUBSTRUCTURE
     1 ZINC000676204775        1 TEMP              0 ****  ****    0 ROOT


##########                                Name:    ZINC000546115054
##########                DOCK_Rotatable_Bonds:                  10
##########                         Heavy_Atoms:                  26
##########                    Molecular_Weight:             363.457
##########                DOCK_Rotatable_Bonds:                  10
##########                       Formal_Charge:        -4.39584e-07
##########                     HBond_Acceptors:                   7
##########                        HBond_Donors:                   2
##########                         Heavy_Atoms:                  26
##########                          Grid_Score:          -29.573900
##########                     Grid_vdw_energy:          -29.389280
##########                      Grid_es_energy:           -0.184621
##########           Internal_energy_repulsive:           18.047241

@<TRIPOS>MOLECULE
ZINC000546115054
 55 56 1 0 0
SMALL
USER_CHARGES


@<TRIPOS>ATOM
      1 C1         -1.3715    2.3327   45.3812 C.3     1  ZINC000546115054   -0.1500
      2 C2         -0.2676    1.2734   45.3981 C.3     1  ZINC000546115054    0.0600
      3 O3         -0.0248    0.8600   46.7444 O.3     1  ZINC000546115054   -0.3700
      4 C4          1.0417    1.5630   47.3849 C.3     1  ZINC000546115054    0.0500
      5 H5          1.1511    2.5490   46.9332 H       1  ZINC000546115054    0.0700
      6 C6          2.3450    0.7770   47.2191 C.3     1  ZINC000546115054    0.0400
      7 O7          3.3982    1.4525   47.9094 O.3     1  ZINC000546115054   -0.3700
      8 C8          3.1852    1.5807   49.3166 C.3     1  ZINC000546115054    0.0600
      9 C9          1.9158    2.3990   49.5667 C.3     1  ZINC000546115054   -0.1600
     10 C10         0.7311    1.7152   48.8770 C.3     1  ZINC000546115054    0.1700
     11 H11         0.5717    0.7307   49.3171 H       1  ZINC000546115054    0.1000
     12 N12        -0.4738    2.5303   49.0500 N.am    1  ZINC000546115054   -0.7300
     13 C13        -1.1251    2.5284   50.2300 C.2     1  ZINC000546115054    0.7200
     14 O14        -0.7133    1.8491   51.1505 O.2     1  ZINC000546115054   -0.5900
     15 N15        -2.2326    3.2796   50.3896 N.am    1  ZINC000546115054   -0.7200
     16 C16        -2.9416    3.2761   51.6717 C.3     1  ZINC000546115054    0.1600
     17 H17        -2.7936    2.3160   52.1660 H       1  ZINC000546115054    0.1200
     18 C18        -2.3955    4.3963   52.5594 C.3     1  ZINC000546115054   -0.1000
     19 C19        -2.3716    3.9342   53.9936 C.ar    1  ZINC000546115054   -0.0800
     20 C20        -1.2271    3.3616   54.5164 C.ar    1  ZINC000546115054   -0.1100
     21 C21        -1.2053    2.9378   55.8319 C.ar    1  ZINC000546115054   -0.1200
     22 C22        -2.3277    3.0866   56.6248 C.ar    1  ZINC000546115054   -0.1200
     23 C23        -3.4719    3.6599   56.1023 C.ar    1  ZINC000546115054   -0.1200
     24 C24        -3.4924    4.0878   54.7881 C.ar    1  ZINC000546115054   -0.1100
     25 C25        -4.4130    3.4967   51.4327 C.2     1  ZINC000546115054    0.5000
     26 O26        -4.8742    4.6173   51.4830 O.2     1  ZINC000546115054   -0.5200
     27 N27        -5.2165    2.4488   51.1629 N.am    1  ZINC000546115054   -0.6200
     28 C28        -4.6597    1.0950   51.1038 C.3     1  ZINC000546115054    0.0800
     29 C29        -6.6466    2.6636   50.9288 C.3     1  ZINC000546115054    0.0700
     30 H30        -1.5566    2.6481   44.3543 H       1  ZINC000546115054    0.0700
     31 H31        -2.2847    1.9125   45.8025 H       1  ZINC000546115054    0.0600
     32 H32        -1.0595    3.1921   45.9746 H       1  ZINC000546115054    0.0600
     33 H33        -0.5796    0.4140   44.8047 H       1  ZINC000546115054    0.0500
     34 H34         0.6457    1.6936   44.9768 H       1  ZINC000546115054    0.0500
     35 H35         2.2214   -0.2233   47.6338 H       1  ZINC000546115054    0.0600
     36 H36         2.5929    0.7036   46.1601 H       1  ZINC000546115054    0.1000
     37 H37         3.0727    0.5908   49.7589 H       1  ZINC000546115054    0.0600
     38 H38         4.0385    2.0861   49.7688 H       1  ZINC000546115054    0.1000
     39 H39         1.7273    2.4605   50.6385 H       1  ZINC000546115054    0.0900
     40 H40         2.0431    3.4023   49.1601 H       1  ZINC000546115054    0.0800
     41 H41        -0.8029    3.0713   48.3153 H       1  ZINC000546115054    0.3900
     42 H42        -2.5604    3.8225   49.6557 H       1  ZINC000546115054    0.4000
     43 H43        -1.3840    4.6503   52.2427 H       1  ZINC000546115054    0.0900
     44 H44        -3.0352    5.2743   52.4712 H       1  ZINC000546115054    0.1100
     45 H45        -0.3502    3.2453   53.8968 H       1  ZINC000546115054    0.1200
     46 H46        -0.3113    2.4898   56.2401 H       1  ZINC000546115054    0.1200
     47 H47        -2.3108    2.7547   57.6524 H       1  ZINC000546115054    0.1200
     48 H48        -4.3489    3.7760   56.7218 H       1  ZINC000546115054    0.1200
     49 H49        -4.3864    4.5357   54.3798 H       1  ZINC000546115054    0.1200
     50 H50        -4.7039    0.6405   52.0936 H       1  ZINC000546115054    0.0600
     51 H51        -5.2384    0.4945   50.4020 H       1  ZINC000546115054    0.0700
     52 H52        -3.6226    1.1430   50.7720 H       1  ZINC000546115054    0.0800
     53 H53        -6.8191    2.8356   49.8664 H       1  ZINC000546115054    0.0600
     54 H54        -7.2035    1.7831   51.2494 H       1  ZINC000546115054    0.0800
     55 H55        -6.9815    3.5317   51.4965 H       1  ZINC000546115054    0.0700
@<TRIPOS>BOND
     1     1     2    1
     2     1    30    1
     3     1    31    1
     4     1    32    1
     5     2     3    1
     6     2    33    1
     7     2    34    1
     8     3     4    1
     9     4     5    1
    10     4    10    1
    11     4     6    1
    12     6     7    1
    13     6    35    1
    14     6    36    1
    15     7     8    1
    16     8     9    1
    17     8    37    1
    18     8    38    1
    19     9    10    1
    20     9    39    1
    21     9    40    1
    22    10    11    1
    23    10    12    1
    24    12    13   am
    25    12    41    1
    26    13    14    2
    27    13    15   am
    28    15    16    1
    29    15    42    1
    30    16    17    1
    31    16    18    1
    32    16    25    1
    33    18    19    1
    34    18    43    1
    35    18    44    1
    36    19    24   ar
    37    19    20   ar
    38    20    21   ar
    39    20    45    1
    40    21    22   ar
    41    21    46    1
    42    22    23   ar
    43    22    47    1
    44    23    24   ar
    45    23    48    1
    46    24    49    1
    47    25    26    2
    48    25    27   am
    49    27    28    1
    50    27    29    1
    51    28    50    1
    52    28    51    1
    53    28    52    1
    54    29    53    1
    55    29    54    1
    56    29    55    1
@<TRIPOS>SUBSTRUCTURE
     1 ZINC000546115054        1 TEMP              0 ****  ****    0 ROOT


##########                                Name:    ZINC000845755710
##########                DOCK_Rotatable_Bonds:                   3
##########                         Heavy_Atoms:                  24
##########                    Molecular_Weight:             349.814
##########                DOCK_Rotatable_Bonds:                   3
##########                       Formal_Charge:         -0.00999974
##########                     HBond_Acceptors:                   6
##########                        HBond_Donors:                   0
##########                         Heavy_Atoms:                  24
##########                          Grid_Score:          -29.571192
##########                     Grid_vdw_energy:          -29.826536
##########                      Grid_es_energy:            0.255344
##########           Internal_energy_repulsive:           13.999011

@<TRIPOS>MOLECULE
ZINC000845755710
 44 47 1 0 0
SMALL
USER_CHARGES


@<TRIPOS>ATOM
      1 C1          1.5708    1.5427   43.3376 C.3     1  ZINC000845755710   -0.1700
      2 C2          0.9403    2.5567   44.2944 C.3     1  ZINC000845755710    0.2600
      3 C3          0.3659    1.8274   45.5105 C.3     1  ZINC000845755710   -0.0900
      4 C4          1.5109    1.3549   46.4094 C.3     1  ZINC000845755710   -0.1300
      5 C5          0.9337    0.5954   47.6079 C.3     1  ZINC000845755710    0.1100
      6 N6         -0.0488    1.4540   48.2834 N.am    1  ZINC000845755710   -0.6000
      7 C7          0.0505    1.7037   49.6041 C.2     1  ZINC000845755710    0.5900
      8 O8          0.9601    1.2165   50.2486 O.2     1  ZINC000845755710   -0.5200
      9 C9         -0.9406    2.5653   50.2662 C.2     1  ZINC000845755710   -0.2200
     10 C10        -0.7796    3.8624   50.6440 C.2     1  ZINC000845755710    0.0600
     11 O11        -1.9028    4.3122   51.2155 O.3     1  ZINC000845755710   -0.1800
     12 C12        -2.8542    3.3560   51.2482 C.ar    1  ZINC000845755710    0.0500
     13 C13        -4.1580    3.3302   51.7271 C.ar    1  ZINC000845755710   -0.0900
     14 C14        -4.9092    2.1790   51.6196 C.ar    1  ZINC000845755710   -0.0800
     15 C15        -4.3760    1.0388   51.0359 C.ar    1  ZINC000845755710   -0.0400
     16 Cl16       -5.3384   -0.4006   50.9108 Cl      1  ZINC000845755710   -0.0600
     17 C17        -3.0830    1.0461   50.5542 C.ar    1  ZINC000845755710   -0.0500
     18 C18        -2.3192    2.2040   50.6530 C.ar    1  ZINC000845755710   -0.0900
     19 C19        -1.1411    2.0357   47.4917 C.3     1  ZINC000845755710    0.1000
     20 C20        -0.5407    2.7791   46.2943 C.3     1  ZINC000845755710   -0.1300
     21 O21         1.9373    3.4982   44.7258 O.3     1  ZINC000845755710   -0.3700
     22 C22         1.7894    4.6288   43.8335 C.3     1  ZINC000845755710    0.0100
     23 C23         0.2552    4.6642   43.6219 C.3     1  ZINC000845755710    0.0200
     24 O24        -0.1062    3.2684   43.6208 O.3     1  ZINC000845755710   -0.3800
     25 H25         1.9743    2.0643   42.4697 H       1  ZINC000845755710    0.0600
     26 H26         2.3743    1.0120   43.8485 H       1  ZINC000845755710    0.0800
     27 H27         0.8131    0.8295   43.0131 H       1  ZINC000845755710    0.0800
     28 H28        -0.2131    0.9662   45.1774 H       1  ZINC000845755710    0.0900
     29 H29         2.1692    0.6956   45.8436 H       1  ZINC000845755710    0.0800
     30 H30         2.0756    2.2176   46.7630 H       1  ZINC000845755710    0.0800
     31 H31         0.4459   -0.3161   47.2625 H       1  ZINC000845755710    0.0700
     32 H32         1.7360    0.3427   48.3012 H       1  ZINC000845755710    0.1000
     33 H33         0.1205    4.4424   50.5037 H       1  ZINC000845755710    0.2200
     34 H34        -4.5831    4.2117   52.1840 H       1  ZINC000845755710    0.1500
     35 H35        -5.9222    2.1646   51.9936 H       1  ZINC000845755710    0.1500
     36 H36        -2.6676    0.1586   50.0998 H       1  ZINC000845755710    0.1400
     37 H37        -1.7982    1.2417   47.1366 H       1  ZINC000845755710    0.0800
     38 H38        -1.7080    2.7334   48.1081 H       1  ZINC000845755710    0.0900
     39 H39         0.0433    3.6284   46.6491 H       1  ZINC000845755710    0.0700
     40 H40        -1.3426    3.1336   45.6468 H       1  ZINC000845755710    0.0800
     41 H41         2.1395    5.5468   44.3056 H       1  ZINC000845755710    0.1100
     42 H42         2.3094    4.4533   42.8917 H       1  ZINC000845755710    0.0800
     43 H43        -0.2348    5.1884   44.4424 H       1  ZINC000845755710    0.0800
     44 H44         0.0088    5.1266   42.6661 H       1  ZINC000845755710    0.1000
@<TRIPOS>BOND
     1     1     2    1
     2     1    25    1
     3     1    26    1
     4     1    27    1
     5     2    24    1
     6     2     3    1
     7     2    21    1
     8     3    20    1
     9     3     4    1
    10     3    28    1
    11     4     5    1
    12     4    29    1
    13     4    30    1
    14     5     6    1
    15     5    31    1
    16     5    32    1
    17     6     7   am
    18     6    19    1
    19     7     8    2
    20     7     9    1
    21     9    18    1
    22     9    10    2
    23    10    11    1
    24    10    33    1
    25    11    12    1
    26    12    18   ar
    27    12    13   ar
    28    13    14   ar
    29    13    34    1
    30    14    15   ar
    31    14    35    1
    32    15    16    1
    33    15    17   ar
    34    17    18   ar
    35    17    36    1
    36    19    20    1
    37    19    37    1
    38    19    38    1
    39    20    39    1
    40    20    40    1
    41    21    22    1
    42    22    23    1
    43    22    41    1
    44    22    42    1
    45    23    24    1
    46    23    43    1
    47    23    44    1
@<TRIPOS>SUBSTRUCTURE
     1 ZINC000845755710        1 TEMP              0 ****  ****    0 ROOT


##########                                Name:    ZINC000186316242
##########                DOCK_Rotatable_Bonds:                   7
##########                         Heavy_Atoms:                  28
##########                    Molecular_Weight:             392.525
##########                DOCK_Rotatable_Bonds:                   7
##########                       Formal_Charge:         -0.00999981
##########                     HBond_Acceptors:                   6
##########                        HBond_Donors:                   0
##########                         Heavy_Atoms:                  28
##########                          Grid_Score:          -29.563560
##########                     Grid_vdw_energy:          -28.746895
##########                      Grid_es_energy:           -0.816665
##########           Internal_energy_repulsive:           22.884884

@<TRIPOS>MOLECULE
ZINC000186316242
 52 55 1 0 0
SMALL
USER_CHARGES


@<TRIPOS>ATOM
      1 C1          0.1246    4.6145   45.8408 C.3     1  ZINC000186316242   -0.1500
      2 C2          1.1781    4.1097   46.8289 C.3     1  ZINC000186316242    0.1000
      3 N3          0.5352    3.2672   47.8403 N.am    1  ZINC000186316242   -0.5900
      4 C4          0.2408    1.9825   47.5590 C.2     1  ZINC000186316242    0.5900
      5 O5         -0.2930    1.2830   48.3986 O.2     1  ZINC000186316242   -0.5000
      6 C6          0.5657    1.4252   46.2342 C.2     1  ZINC000186316242    0.0100
      7 C7         -0.3673    1.2779   45.2516 C.2     1  ZINC000186316242   -0.2100
      8 S8          0.3816    0.6037   43.8698 S.3     1  ZINC000186316242    0.2000
      9 C9          1.9288    0.5585   44.7067 C.2     1  ZINC000186316242    0.0700
     10 C10         3.1966    0.0605   44.1299 C.ar    1  ZINC000186316242    0.1900
     11 C11         3.2201   -0.4179   42.8202 C.ar    1  ZINC000186316242   -0.1500
     12 C12         4.4142   -0.8801   42.2945 C.ar    1  ZINC000186316242   -0.0700
     13 C13         5.5467   -0.8490   43.0955 C.ar    1  ZINC000186316242   -0.1600
     14 C14         5.4522   -0.3612   44.3866 C.ar    1  ZINC000186316242    0.1100
     15 N15         4.3050    0.0775   44.8616 N.ar    1  ZINC000186316242   -0.4500
     16 N16         1.7880    1.0343   45.9057 N.2     1  ZINC000186316242   -0.3900
     17 C17         0.2121    3.8212   49.1575 C.3     1  ZINC000186316242    0.1400
     18 H18         0.4413    4.8864   49.1857 H       1  ZINC000186316242    0.1000
     19 C19         0.9962    3.0743   50.2607 C.3     1  ZINC000186316242   -0.1300
     20 C20        -0.0390    2.9655   51.4083 C.3     1  ZINC000186316242    0.0400
     21 N21        -1.3171    2.7240   50.6913 N.3     1  ZINC000186316242   -0.4900
     22 C22        -2.4683    3.0635   51.5383 C.3     1  ZINC000186316242    0.0800
     23 C23        -3.6928    2.3445   51.0336 C.ar    1  ZINC000186316242   -0.0700
     24 C24        -3.6383    0.9889   50.7689 C.ar    1  ZINC000186316242   -0.1000
     25 C25        -4.7616    0.3294   50.3058 C.ar    1  ZINC000186316242   -0.1200
     26 C26        -5.9393    1.0255   50.1079 C.ar    1  ZINC000186316242   -0.1200
     27 C27        -5.9940    2.3810   50.3735 C.ar    1  ZINC000186316242   -0.1200
     28 C28        -4.8720    3.0397   50.8406 C.ar    1  ZINC000186316242   -0.1100
     29 C29        -1.2736    3.5852   49.4868 C.3     1  ZINC000186316242    0.0400
     30 H30         0.6030    5.2414   45.0883 H       1  ZINC000186316242    0.0700
     31 H31        -0.3544    3.7646   45.3547 H       1  ZINC000186316242    0.0500
     32 H32        -0.6254    5.1972   46.3757 H       1  ZINC000186316242    0.0400
     33 H33         1.9281    3.5271   46.2940 H       1  ZINC000186316242    0.1200
     34 H34         1.6571    4.9596   47.3151 H       1  ZINC000186316242    0.0700
     35 H35        -1.4108    1.5440   45.3325 H       1  ZINC000186316242    0.1900
     36 H36         2.3191   -0.4279   42.2247 H       1  ZINC000186316242    0.1400
     37 H37         4.4633   -1.2568   41.2836 H       1  ZINC000186316242    0.1400
     38 H38         6.4934   -1.2029   42.7146 H       1  ZINC000186316242    0.1400
     39 H39         6.3320   -0.3362   45.0124 H       1  ZINC000186316242    0.1600
     40 H40         1.2970    2.0844   49.9173 H       1  ZINC000186316242    0.0900
     41 H41         1.8635    3.6539   50.5772 H       1  ZINC000186316242    0.0700
     42 H42         0.1991    2.1272   52.0631 H       1  ZINC000186316242    0.0800
     43 H43        -0.0852    3.8959   51.9742 H       1  ZINC000186316242    0.0400
     44 H44        -2.2659    2.7595   52.5653 H       1  ZINC000186316242    0.0400
     45 H45        -2.6392    4.1395   51.5050 H       1  ZINC000186316242    0.0800
     46 H46        -2.7182    0.4450   50.9235 H       1  ZINC000186316242    0.1200
     47 H47        -4.7188   -0.7296   50.0984 H       1  ZINC000186316242    0.1200
     48 H48        -6.8167    0.5105   49.7455 H       1  ZINC000186316242    0.1200
     49 H49        -6.9141    2.9250   50.2187 H       1  ZINC000186316242    0.1200
     50 H50        -4.9147    4.0987   51.0481 H       1  ZINC000186316242    0.1200
     51 H51        -1.7662    4.5356   49.6919 H       1  ZINC000186316242    0.0500
     52 H52        -1.7633    3.0824   48.6529 H       1  ZINC000186316242    0.0800
@<TRIPOS>BOND
     1     1     2    1
     2     1    30    1
     3     1    31    1
     4     1    32    1
     5     2     3    1
     6     2    33    1
     7     2    34    1
     8     3     4   am
     9     3    17    1
    10     4     5    2
    11     4     6    1
    12     6    16    1
    13     6     7    2
    14     7     8    1
    15     7    35    1
    16     8     9    1
    17     9    10    1
    18     9    16    2
    19    10    15   ar
    20    10    11   ar
    21    11    12   ar
    22    11    36    1
    23    12    13   ar
    24    12    37    1
    25    13    14   ar
    26    13    38    1
    27    14    15   ar
    28    14    39    1
    29    17    18    1
    30    17    29    1
    31    17    19    1
    32    19    20    1
    33    19    40    1
    34    19    41    1
    35    20    21    1
    36    20    42    1
    37    20    43    1
    38    21    22    1
    39    21    29    1
    40    22    23    1
    41    22    44    1
    42    22    45    1
    43    23    28   ar
    44    23    24   ar
    45    24    25   ar
    46    24    46    1
    47    25    26   ar
    48    25    47    1
    49    26    27   ar
    50    26    48    1
    51    27    28   ar
    52    27    49    1
    53    28    50    1
    54    29    51    1
    55    29    52    1
@<TRIPOS>SUBSTRUCTURE
     1 ZINC000186316242        1 TEMP              0 ****  ****    0 ROOT


##########                                Name:    ZINC000888733009
##########                DOCK_Rotatable_Bonds:                   6
##########                         Heavy_Atoms:                  25
##########                    Molecular_Weight:             360.434
##########                DOCK_Rotatable_Bonds:                   6
##########                       Formal_Charge:        -1.02073e-06
##########                     HBond_Acceptors:                   7
##########                        HBond_Donors:                   2
##########                         Heavy_Atoms:                  25
##########                          Grid_Score:          -29.540283
##########                     Grid_vdw_energy:          -29.046556
##########                      Grid_es_energy:           -0.493726
##########           Internal_energy_repulsive:            6.209586

@<TRIPOS>MOLECULE
ZINC000888733009
 45 48 1 0 0
SMALL
USER_CHARGES


@<TRIPOS>ATOM
      1 C1          3.1804    0.3152   42.6907 C.3     1  ZINC000888733009   -0.1500
      2 C2          2.0840    1.1901   43.3018 C.3     1  ZINC000888733009    0.0700
      3 H3          1.9930    2.1246   42.7483 H       1  ZINC000888733009    0.0700
      4 C4          2.3902    1.4745   44.7919 C.3     1  ZINC000888733009   -0.1300
      5 C5          1.0081    1.4407   45.4579 C.3     1  ZINC000888733009   -0.1100
      6 C6          0.8888    0.5584   46.6979 C.3     1  ZINC000888733009   -0.1300
      7 C7         -0.0430    1.6420   47.2712 C.3     1  ZINC000888733009    0.1200
      8 N8          0.1794    1.9134   48.6936 N.am    1  ZINC000888733009   -0.7100
      9 C9         -0.5520    2.8547   49.3224 C.2     1  ZINC000888733009    0.5900
     10 O10        -1.3983    3.4782   48.7090 O.2     1  ZINC000888733009   -0.5600
     11 C11        -0.3282    3.1275   50.7452 C.2     1  ZINC000888733009   -0.2400
     12 C12        -1.3384    3.2228   51.6676 C.2     1  ZINC000888733009    0.0800
     13 N13        -2.6850    3.0751   51.3791 N.am    1  ZINC000888733009   -0.6100
     14 C14        -3.1595    1.8821   50.9688 C.2     1  ZINC000888733009    0.6000
     15 O15        -2.4049    0.9343   50.8533 O.2     1  ZINC000888733009   -0.4900
     16 C16        -4.5843    1.7263   50.6618 C.2     1  ZINC000888733009   -0.0900
     17 C17        -5.5502    2.6773   50.8295 C.2     1  ZINC000888733009   -0.1000
     18 C18        -6.7601    2.1017   50.4112 C.2     1  ZINC000888733009   -0.2300
     19 C19        -6.4835    0.8407   50.0115 C.2     1  ZINC000888733009    0.0100
     20 O20        -5.1706    0.6202   50.1586 O.3     1  ZINC000888733009   -0.1600
     21 S21        -0.7093    3.5473   53.2181 S.3     1  ZINC000888733009    0.3000
     22 C22         0.9440    3.5580   52.6303 C.2     1  ZINC000888733009   -0.2800
     23 C23         0.9821    3.3190   51.3273 C.2     1  ZINC000888733009   -0.0900
     24 C24         0.6630    2.6409   46.3359 C.3     1  ZINC000888733009   -0.1400
     25 C25         0.0215    1.1360   44.3229 C.3     1  ZINC000888733009    0.0700
     26 O26         0.8228    0.4845   43.3081 O.3     1  ZINC000888733009   -0.3700
     27 H27         2.9369    0.1017   41.6499 H       1  ZINC000888733009    0.0600
     28 H28         4.1342    0.8404   42.7404 H       1  ZINC000888733009    0.0700
     29 H29         3.2511   -0.6198   43.2465 H       1  ZINC000888733009    0.0600
     30 H30         3.0343    0.6986   45.2058 H       1  ZINC000888733009    0.0800
     31 H31         2.8481    2.4568   44.9084 H       1  ZINC000888733009    0.0800
     32 H32         0.3908   -0.3932   46.5117 H       1  ZINC000888733009    0.0800
     33 H33         1.8232    0.4486   47.2483 H       1  ZINC000888733009    0.0900
     34 H34        -1.0943    1.4851   47.0301 H       1  ZINC000888733009    0.1200
     35 H35         0.8530    1.4156   49.1828 H       1  ZINC000888733009    0.4000
     36 H36        -3.2866    3.8302   51.4724 H       1  ZINC000888733009    0.4400
     37 H37        -5.4103    3.6781   51.2104 H       1  ZINC000888733009    0.1700
     38 H38        -7.7299    2.5771   50.4093 H       1  ZINC000888733009    0.1600
     39 H39        -7.2020    0.1295   49.6318 H       1  ZINC000888733009    0.2200
     40 H40         1.8130    3.7315   53.2475 H       1  ZINC000888733009    0.1700
     41 H41         1.8980    3.2793   50.7564 H       1  ZINC000888733009    0.1500
     42 H42         1.5335    3.1200   46.7839 H       1  ZINC000888733009    0.0900
     43 H43        -0.0151    3.3500   45.8608 H       1  ZINC000888733009    0.0800
     44 H44        -0.7664    0.4690   44.6725 H       1  ZINC000888733009    0.0900
     45 H45        -0.4061    2.0595   43.9325 H       1  ZINC000888733009    0.0700
@<TRIPOS>BOND
     1     1     2    1
     2     1    27    1
     3     1    28    1
     4     1    29    1
     5     2     3    1
     6     2    26    1
     7     2     4    1
     8     4     5    1
     9     4    30    1
    10     4    31    1
    11     5    24    1
    12     5     6    1
    13     5    25    1
    14     6     7    1
    15     6    32    1
    16     6    33    1
    17     7     8    1
    18     7    24    1
    19     7    34    1
    20     8     9   am
    21     8    35    1
    22     9    10    2
    23     9    11    1
    24    11    23    1
    25    11    12    2
    26    12    13    1
    27    12    21    1
    28    13    14   am
    29    13    36    1
    30    14    15    2
    31    14    16    1
    32    16    20    1
    33    16    17    2
    34    17    18    1
    35    17    37    1
    36    18    19    2
    37    18    38    1
    38    19    20    1
    39    19    39    1
    40    21    22    1
    41    22    23    2
    42    22    40    1
    43    23    41    1
    44    24    42    1
    45    24    43    1
    46    25    26    1
    47    25    44    1
    48    25    45    1
@<TRIPOS>SUBSTRUCTURE
     1 ZINC000888733009        1 TEMP              0 ****  ****    0 ROOT


##########                                Name:    ZINC001135312623
##########                DOCK_Rotatable_Bonds:                   3
##########                         Heavy_Atoms:                  25
##########                    Molecular_Weight:             341.323
##########                DOCK_Rotatable_Bonds:                   3
##########                       Formal_Charge:        -1.78814e-07
##########                     HBond_Acceptors:                   8
##########                        HBond_Donors:                   2
##########                         Heavy_Atoms:                  25
##########                          Grid_Score:          -29.529226
##########                     Grid_vdw_energy:          -29.544909
##########                      Grid_es_energy:            0.015683
##########           Internal_energy_repulsive:            9.971349

@<TRIPOS>MOLECULE
ZINC001135312623
 40 42 1 0 0
SMALL
USER_CHARGES


@<TRIPOS>ATOM
      1 C1          0.3814    0.4637   47.8165 C.3     1  ZINC001135312623   -0.1300
      2 C2          1.2847    0.8664   48.9536 C.ar    1  ZINC001135312623   -0.0600
      3 C3          2.6555    0.8391   48.7903 C.ar    1  ZINC001135312623   -0.1000
      4 C4          3.4853    1.2080   49.8335 C.ar    1  ZINC001135312623   -0.0300
      5 C5          4.9810    1.1770   49.6517 C.3     1  ZINC001135312623   -0.1300
      6 C6          2.9455    1.6058   51.0426 C.ar    1  ZINC001135312623   -0.0200
      7 N7          3.8372    1.9999   52.1564 N.pl3   1  ZINC001135312623    0.0200
      8 O8          3.5299    1.7359   53.3051 O.2     1  ZINC001135312623   -0.1500
      9 O9          4.8782    2.5880   51.9243 O.2     1  ZINC001135312623   -0.1500
     10 C10         1.5750    1.6363   51.2123 C.ar    1  ZINC001135312623   -0.0700
     11 C11         0.7390    1.2710   50.1653 C.ar    1  ZINC001135312623    0.1500
     12 N12        -0.6490    1.3008   50.3336 N.am    1  ZINC001135312623   -0.6600
     13 C13        -1.2341    2.3646   50.9190 C.2     1  ZINC001135312623    0.5600
     14 O14        -0.5552    3.2984   51.3006 O.2     1  ZINC001135312623   -0.5000
     15 C15        -2.6986    2.3960   51.0966 C.ar    1  ZINC001135312623   -0.1600
     16 C16        -3.3204    3.5505   51.5797 C.ar    1  ZINC001135312623   -0.0400
     17 C17        -4.6877    3.5790   51.7460 C.ar    1  ZINC001135312623   -0.1500
     18 C18        -5.4474    2.4593   51.4324 C.ar    1  ZINC001135312623    0.2000
     19 N19        -6.8328    2.4657   51.5963 N.am    1  ZINC001135312623   -0.6700
     20 C20        -7.5104    1.3003   51.5943 C.2     1  ZINC001135312623    0.6600
     21 O21        -8.7198    1.3091   51.7125 O.2     1  ZINC001135312623   -0.4900
     22 O22        -6.8643    0.1278   51.4628 O.3     1  ZINC001135312623   -0.3400
     23 C23        -5.6828    0.1085   50.6155 C.3     1  ZINC001135312623    0.1100
     24 C24        -4.8296    1.3069   50.9488 C.ar    1  ZINC001135312623   -0.1800
     25 C25        -3.4675    1.2722   50.7762 C.ar    1  ZINC001135312623    0.0000
     26 H26         0.1477    1.3391   47.2106 H       1  ZINC001135312623    0.0900
     27 H27         0.8837   -0.2816   47.1998 H       1  ZINC001135312623    0.0800
     28 H28        -0.5408    0.0423   48.2168 H       1  ZINC001135312623    0.0700
     29 H29         3.0803    0.5289   47.8471 H       1  ZINC001135312623    0.1500
     30 H30         5.3116    2.1123   49.2001 H       1  ZINC001135312623    0.0900
     31 H31         5.4623    1.0516   50.6216 H       1  ZINC001135312623    0.0800
     32 H32         5.2507    0.3445   49.0018 H       1  ZINC001135312623    0.0800
     33 H33         1.1540    1.9471   52.1571 H       1  ZINC001135312623    0.1700
     34 H34        -1.1906    0.5559   50.0293 H       1  ZINC001135312623    0.4200
     35 H35        -2.7289    4.4208   51.8231 H       1  ZINC001135312623    0.1400
     36 H36        -5.1683    4.4709   52.1199 H       1  ZINC001135312623    0.1500
     37 H37        -7.3060    3.3045   51.7115 H       1  ZINC001135312623    0.4300
     38 H38        -5.1170   -0.8052   50.7978 H       1  ZINC001135312623    0.1300
     39 H39        -5.9828    0.1529   49.5685 H       1  ZINC001135312623    0.1000
     40 H40        -2.9916    0.3793   50.3983 H       1  ZINC001135312623    0.1500
@<TRIPOS>BOND
     1     1     2    1
     2     1    26    1
     3     1    27    1
     4     1    28    1
     5     2    11   ar
     6     2     3   ar
     7     3     4   ar
     8     3    29    1
     9     4     5    1
    10     4     6   ar
    11     5    30    1
    12     5    31    1
    13     5    32    1
    14     6     7    1
    15     6    10   ar
    16     7     8    2
    17     7     9    2
    18    10    11   ar
    19    10    33    1
    20    11    12    1
    21    12    13   am
    22    12    34    1
    23    13    14    2
    24    13    15    1
    25    15    25   ar
    26    15    16   ar
    27    16    17   ar
    28    16    35    1
    29    17    18   ar
    30    17    36    1
    31    18    24   ar
    32    18    19    1
    33    19    20   am
    34    19    37    1
    35    20    21    2
    36    20    22    1
    37    22    23    1
    38    23    24    1
    39    23    38    1
    40    23    39    1
    41    24    25   ar
    42    25    40    1
@<TRIPOS>SUBSTRUCTURE
     1 ZINC001135312623        1 TEMP              0 ****  ****    0 ROOT


##########                                Name:    ZINC001011267435
##########                DOCK_Rotatable_Bonds:                   7
##########                         Heavy_Atoms:                  24
##########                    Molecular_Weight:             331.458
##########                DOCK_Rotatable_Bonds:                   7
##########                       Formal_Charge:        -4.47035e-08
##########                     HBond_Acceptors:                   5
##########                        HBond_Donors:                   0
##########                         Heavy_Atoms:                  24
##########                          Grid_Score:          -29.520956
##########                     Grid_vdw_energy:          -30.466074
##########                      Grid_es_energy:            0.945117
##########           Internal_energy_repulsive:           38.530762

@<TRIPOS>MOLECULE
ZINC001011267435
 53 54 1 0 0
SMALL
USER_CHARGES


@<TRIPOS>ATOM
      1 C1         -7.1537    1.0891   51.5852 C.3     1  ZINC001011267435   -0.1500
      2 C2         -6.3458    0.9034   50.2993 C.3     1  ZINC001011267435   -0.1200
      3 C3         -5.0054    0.2442   50.6298 C.3     1  ZINC001011267435   -0.0700
      4 C4         -3.9502    1.3072   50.7960 C.ar    1  ZINC001011267435    0.1300
      5 C5         -2.6746    1.0816   50.3168 C.ar    1  ZINC001011267435   -0.1200
      6 C6         -1.7043    2.0758   50.4771 C.ar    1  ZINC001011267435   -0.0800
      7 C7         -0.3231    1.8791   49.9790 C.2     1  ZINC001011267435    0.5600
      8 O8          0.5996    1.7916   50.7649 O.2     1  ZINC001011267435   -0.5200
      9 N9         -0.0898    1.7971   48.6541 N.am    1  ZINC001011267435   -0.6100
     10 C10        -1.1951    1.9072   47.6918 C.3     1  ZINC001011267435    0.0700
     11 C11        -0.8714    3.0314   46.7001 C.3     1  ZINC001011267435    0.1000
     12 N12         0.4929    2.8307   46.1917 N.am    1  ZINC001011267435   -0.6200
     13 C13         0.7263    2.7495   44.8668 C.2     1  ZINC001011267435    0.5300
     14 O14        -0.1939    2.8424   44.0823 O.2     1  ZINC001011267435   -0.5300
     15 C15         2.1305    2.5436   44.3603 C.3     1  ZINC001011267435   -0.1100
     16 H16         2.8185    3.1643   44.9342 H       1  ZINC001011267435    0.0900
     17 C17         2.2023    2.9346   42.8828 C.3     1  ZINC001011267435   -0.1500
     18 C18         2.5189    1.0721   44.5178 C.3     1  ZINC001011267435   -0.0800
     19 C19         1.9083    0.2583   43.3751 C.3     1  ZINC001011267435   -0.1500
     20 C20         4.0427    0.9401   44.4803 C.3     1  ZINC001011267435   -0.1500
     21 C21         1.5983    2.7205   47.1540 C.3     1  ZINC001011267435    0.0900
     22 C22         1.2752    1.6020   48.1456 C.3     1  ZINC001011267435    0.1000
     23 C23        -2.0742    3.2608   51.1201 C.ar    1  ZINC001011267435   -0.1600
     24 C24        -3.3734    3.4023   51.5685 C.ar    1  ZINC001011267435    0.1100
     25 N25        -4.2585    2.4419   51.3920 N.ar    1  ZINC001011267435   -0.4600
     26 H26        -7.3306    0.1176   52.0467 H       1  ZINC001011267435    0.0600
     27 H27        -6.5974    1.7234   52.2753 H       1  ZINC001011267435    0.0500
     28 H28        -8.1088    1.5588   51.3497 H       1  ZINC001011267435    0.0600
     29 H29        -6.9022    0.2692   49.6091 H       1  ZINC001011267435    0.0700
     30 H30        -6.1690    1.8749   49.8377 H       1  ZINC001011267435    0.0600
     31 H31        -5.0982   -0.3235   51.5557 H       1  ZINC001011267435    0.0800
     32 H32        -4.7207   -0.4267   49.8193 H       1  ZINC001011267435    0.0900
     33 H33        -2.4300    0.1512   49.8259 H       1  ZINC001011267435    0.1400
     34 H34        -1.3071    0.9658   47.1538 H       1  ZINC001011267435    0.0800
     35 H35        -2.1189    2.1410   48.2210 H       1  ZINC001011267435    0.1100
     36 H36        -1.5785    3.0029   45.8711 H       1  ZINC001011267435    0.1100
     37 H37        -0.9352    3.9949   47.2057 H       1  ZINC001011267435    0.0700
     38 H38         3.1953    2.7079   42.4948 H       1  ZINC001011267435    0.0800
     39 H39         1.4558    2.3725   42.3215 H       1  ZINC001011267435    0.0600
     40 H40         2.0066    4.0019   42.7795 H       1  ZINC001011267435    0.0600
     41 H41         2.1450    0.6977   45.4707 H       1  ZINC001011267435    0.0800
     42 H42         2.1850   -0.7900   43.4873 H       1  ZINC001011267435    0.0600
     43 H43         0.8227    0.3524   43.4017 H       1  ZINC001011267435    0.0600
     44 H44         2.2822    0.6328   42.4221 H       1  ZINC001011267435    0.0600
     45 H45         4.4777    1.5199   45.2944 H       1  ZINC001011267435    0.0600
     46 H46         4.3194   -0.1082   44.5925 H       1  ZINC001011267435    0.0600
     47 H47         4.4166    1.3146   43.5274 H       1  ZINC001011267435    0.0500
     48 H48         2.5220    2.4867   46.6249 H       1  ZINC001011267435    0.1000
     49 H49         1.7101    3.6620   47.6920 H       1  ZINC001011267435    0.0800
     50 H50         1.9831    1.6316   48.9739 H       1  ZINC001011267435    0.1100
     51 H51         1.3378    0.6373   47.6419 H       1  ZINC001011267435    0.0800
     52 H52        -1.3550    4.0535   51.2645 H       1  ZINC001011267435    0.1500
     53 H53        -3.6687    4.3139   52.0667 H       1  ZINC001011267435    0.1700
@<TRIPOS>BOND
     1     1     2    1
     2     1    26    1
     3     1    27    1
     4     1    28    1
     5     2     3    1
     6     2    29    1
     7     2    30    1
     8     3     4    1
     9     3    31    1
    10     3    32    1
    11     4    25   ar
    12     4     5   ar
    13     5     6   ar
    14     5    33    1
    15     6     7    1
    16     6    23   ar
    17     7     8    2
    18     7     9   am
    19     9    22    1
    20     9    10    1
    21    10    11    1
    22    10    34    1
    23    10    35    1
    24    11    12    1
    25    11    36    1
    26    11    37    1
    27    12    13   am
    28    12    21    1
    29    13    14    2
    30    13    15    1
    31    15    16    1
    32    15    17    1
    33    15    18    1
    34    17    38    1
    35    17    39    1
    36    17    40    1
    37    18    19    1
    38    18    20    1
    39    18    41    1
    40    19    42    1
    41    19    43    1
    42    19    44    1
    43    20    45    1
    44    20    46    1
    45    20    47    1
    46    21    22    1
    47    21    48    1
    48    21    49    1
    49    22    50    1
    50    22    51    1
    51    23    24   ar
    52    23    52    1
    53    24    25   ar
    54    24    53    1
@<TRIPOS>SUBSTRUCTURE
     1 ZINC001011267435        1 TEMP              0 ****  ****    0 ROOT


##########                                Name:    ZINC000022858610
##########                DOCK_Rotatable_Bonds:                   9
##########                         Heavy_Atoms:                  26
##########                    Molecular_Weight:             369.343
##########                DOCK_Rotatable_Bonds:                   9
##########                       Formal_Charge:          0.00999956
##########                     HBond_Acceptors:                   9
##########                        HBond_Donors:                   2
##########                         Heavy_Atoms:                  26
##########                          Grid_Score:          -29.500782
##########                     Grid_vdw_energy:          -28.872040
##########                      Grid_es_energy:           -0.628743
##########           Internal_energy_repulsive:           16.520386

@<TRIPOS>MOLECULE
ZINC000022858610
 44 45 1 0 0
SMALL
USER_CHARGES


@<TRIPOS>ATOM
      1 C1          3.2848    1.9477   45.7342 C.3     1  <0>         0.0100
      2 N2          2.8279    1.3791   47.0092 N.3     1  <0>        -0.5300
      3 C3          3.8520    1.5325   48.0512 C.3     1  <0>         0.0200
      4 C4          1.5557    1.9820   47.4287 C.3     1  <0>         0.1500
      5 H5          1.6967    3.0501   47.5937 H       1  <0>         0.1200
      6 C6          1.0829    1.3236   48.7264 C.3     1  <0>         0.1300
      7 N7         -0.3766    1.4138   48.8162 N.am    1  <0>        -0.6800
      8 C8         -0.9753    1.4705   50.0223 C.2     1  <0>         0.5100
      9 O9         -0.3054    1.4483   51.0340 O.2     1  <0>        -0.5100
     10 C10        -2.4633    1.5607   50.1138 C.2     1  <0>         0.5200
     11 O11        -3.1383    1.4968   49.1071 O.2     1  <0>        -0.4900
     12 N12        -3.0566    1.7130   51.3144 N.am    1  <0>        -0.6500
     13 C13        -4.4488    1.7974   51.3999 C.ar    1  <0>         0.1900
     14 C14        -5.2386    0.7447   50.9556 C.ar    1  <0>        -0.1200
     15 C15        -6.6144    0.8315   51.0415 C.ar    1  <0>        -0.0700
     16 C16        -7.2055    1.9647   51.5694 C.ar    1  <0>        -0.1300
     17 C17        -6.4221    3.0149   52.0123 C.ar    1  <0>        -0.0500
     18 C18        -5.0459    2.9322   51.9350 C.ar    1  <0>        -0.2100
     19 C19        -4.1931    4.0770   52.4179 C.3     1  <0>         0.5100
     20 F20        -3.4119    3.6531   53.4983 F       1  <0>        -0.1700
     21 F21        -3.3595    4.5075   51.3803 F       1  <0>        -0.1800
     22 F22        -5.0162    5.1330   52.8236 F       1  <0>        -0.1700
     23 C23         0.5214    1.7719   46.3531 C.2     1  <0>        -0.0500
     24 C24        -0.4413    2.6449   46.0063 C.2     1  <0>        -0.1900
     25 C25        -1.1811    2.0451   44.9614 C.2     1  <0>        -0.2100
     26 C26        -0.6263    0.8414   44.7321 C.2     1  <0>        -0.0400
     27 O27         0.4082    0.6837   45.5741 O.3     1  <0>        -0.1700
     28 H28         4.1200    1.3602   45.3528 H       1  <0>         0.0700
     29 H29         2.4673    1.9275   45.0135 H       1  <0>         0.0700
     30 H30         3.6064    2.9775   45.8901 H       1  <0>         0.0500
     31 H31         4.0659    2.5913   48.1974 H       1  <0>         0.0300
     32 H32         3.4879    1.1031   48.9846 H       1  <0>         0.0700
     33 H33         4.7622    1.0170   47.7447 H       1  <0>         0.0800
     34 H34         1.3832    0.2757   48.7326 H       1  <0>         0.0900
     35 H35         1.5316    1.8351   49.5779 H       1  <0>         0.0800
     36 H36        -0.9120    1.4328   48.0076 H       1  <0>         0.4200
     37 H37        -2.5173    1.7640   52.1189 H       1  <0>         0.4300
     38 H38        -4.7776   -0.1405   50.5429 H       1  <0>         0.1500
     39 H39        -7.2291    0.0136   50.6960 H       1  <0>         0.1400
     40 H40        -8.2815    2.0299   51.6354 H       1  <0>         0.1400
     41 H41        -6.8871    3.8987   52.4233 H       1  <0>         0.1500
     42 H42        -0.6161    3.6172   46.4427 H       1  <0>         0.1500
     43 H43        -2.0294    2.4714   44.4463 H       1  <0>         0.1500
     44 H44        -0.9544    0.1250   43.9935 H       1  <0>         0.2000
@<TRIPOS>BOND
     1     1     2    1
     2     1    28    1
     3     1    29    1
     4     1    30    1
     5     2     3    1
     6     2     4    1
     7     3    31    1
     8     3    32    1
     9     3    33    1
    10     4     5    1
    11     4     6    1
    12     4    23    1
    13     6     7    1
    14     6    34    1
    15     6    35    1
    16     7     8   am
    17     7    36    1
    18     8     9    2
    19     8    10    1
    20    10    11    2
    21    10    12   am
    22    12    13    1
    23    12    37    1
    24    13    18   ar
    25    13    14   ar
    26    14    15   ar
    27    14    38    1
    28    15    16   ar
    29    15    39    1
    30    16    17   ar
    31    16    40    1
    32    17    18   ar
    33    17    41    1
    34    18    19    1
    35    19    20    1
    36    19    21    1
    37    19    22    1
    38    23    27    1
    39    23    24    2
    40    24    25    1
    41    24    42    1
    42    25    26    2
    43    25    43    1
    44    26    27    1
    45    26    44    1
@<TRIPOS>SUBSTRUCTURE
     1 <0>         1 TEMP              0 ****  ****    0 ROOT


##########                                Name:    ZINC000885154703
##########                DOCK_Rotatable_Bonds:                   5
##########                         Heavy_Atoms:                  24
##########                    Molecular_Weight:             396.259
##########                DOCK_Rotatable_Bonds:                   5
##########                       Formal_Charge:          -0.0099998
##########                     HBond_Acceptors:                   6
##########                        HBond_Donors:                   1
##########                         Heavy_Atoms:                  24
##########                          Grid_Score:          -29.480913
##########                     Grid_vdw_energy:          -29.654694
##########                      Grid_es_energy:            0.173781
##########           Internal_energy_repulsive:            8.806496

@<TRIPOS>MOLECULE
ZINC000885154703
 43 45 1 0 0
SMALL
USER_CHARGES


@<TRIPOS>ATOM
      1 C1          4.2770   -0.9657   51.9841 C.3     1  ZINC000885154703   -0.1500
      2 C2          4.6272    0.4932   51.6842 C.3     1  ZINC000885154703   -0.0300
      3 C3          3.7301    1.0103   50.5892 C.2     1  ZINC000885154703    0.1700
      4 N4          4.0060    1.9703   49.7581 N.2     1  ZINC000885154703   -0.3800
      5 O5          3.0775    2.1471   48.9977 O.3     1  ZINC000885154703    0.0800
      6 C6          2.0913    1.2905   49.2802 C.2     1  ZINC000885154703    0.1800
      7 C7          0.7660    1.1824   48.5710 C.3     1  ZINC000885154703    0.0000
      8 H8          0.7235    0.2555   47.9990 H       1  ZINC000885154703    0.1300
      9 C9          0.5681    2.3913   47.6335 C.3     1  ZINC000885154703   -0.1200
     10 C10        -0.9433    2.7125   47.7417 C.3     1  ZINC000885154703   -0.1300
     11 C11        -1.2401    2.4594   49.2407 C.3     1  ZINC000885154703    0.1400
     12 H12        -0.9367    3.3179   49.8398 H       1  ZINC000885154703    0.1000
     13 N13        -2.6629    2.1732   49.4404 N.am    1  ZINC000885154703   -0.7100
     14 C14        -3.1833    2.1788   50.6836 C.2     1  ZINC000885154703    0.5700
     15 O15        -2.4718    2.4198   51.6394 O.2     1  ZINC000885154703   -0.5100
     16 C16        -4.6182    1.8920   50.8848 C.ar    1  ZINC000885154703   -0.1600
     17 C17        -5.1316    0.6281   50.5786 C.ar    1  ZINC000885154703    0.1500
     18 F18        -4.3167   -0.3360   50.0972 F       1  ZINC000885154703   -0.1200
     19 C19        -6.4765    0.3675   50.7703 C.ar    1  ZINC000885154703   -0.1500
     20 C20        -7.3107    1.3532   51.2626 C.ar    1  ZINC000885154703   -0.0400
     21 C21        -6.8076    2.6074   51.5678 C.ar    1  ZINC000885154703   -0.1100
     22 Br22       -7.9601    3.9471   52.2407 Br      1  ZINC000885154703   -0.0300
     23 C23        -5.4676    2.8802   51.3872 C.ar    1  ZINC000885154703    0.0100
     24 C24        -4.9234    4.2453   51.7207 C.3     1  ZINC000885154703   -0.1300
     25 C25        -0.3835    1.2243   49.5930 C.3     1  ZINC000885154703   -0.1300
     26 N26         2.4993    0.5588   50.2890 N.2     1  ZINC000885154703   -0.4800
     27 H27         3.2373   -1.0312   52.3049 H       1  ZINC000885154703    0.0600
     28 H28         4.4183   -1.5655   51.0850 H       1  ZINC000885154703    0.0600
     29 H29         4.9259   -1.3397   52.7760 H       1  ZINC000885154703    0.0700
     30 H30         4.4859    1.0929   52.5833 H       1  ZINC000885154703    0.1000
     31 H31         5.6669    0.5587   51.3634 H       1  ZINC000885154703    0.0900
     32 H32         1.1634    3.2390   47.9732 H       1  ZINC000885154703    0.0800
     33 H33         0.8295    2.1265   46.6090 H       1  ZINC000885154703    0.0900
     34 H34        -1.1370    3.7526   47.4798 H       1  ZINC000885154703    0.0800
     35 H35        -1.5270    2.0398   47.1134 H       1  ZINC000885154703    0.0800
     36 H36        -3.2304    1.9797   48.6779 H       1  ZINC000885154703    0.4000
     37 H37        -6.8755   -0.6081   50.5345 H       1  ZINC000885154703    0.1500
     38 H38        -8.3601    1.1447   51.4098 H       1  ZINC000885154703    0.1500
     39 H39        -4.5995    4.2631   52.7613 H       1  ZINC000885154703    0.0900
     40 H40        -4.0756    4.4668   51.0724 H       1  ZINC000885154703    0.0800
     41 H41        -5.7015    4.9934   51.5696 H       1  ZINC000885154703    0.0900
     42 H42        -0.9854    0.3187   49.5169 H       1  ZINC000885154703    0.0900
     43 H43         0.0171    1.3233   50.6017 H       1  ZINC000885154703    0.0800
@<TRIPOS>BOND
     1     1     2    1
     2     1    27    1
     3     1    28    1
     4     1    29    1
     5     2     3    1
     6     2    30    1
     7     2    31    1
     8     3    26    1
     9     3     4    2
    10     4     5    1
    11     5     6    1
    12     6     7    1
    13     6    26    2
    14     7     8    1
    15     7    25    1
    16     7     9    1
    17     9    10    1
    18     9    32    1
    19     9    33    1
    20    10    11    1
    21    10    34    1
    22    10    35    1
    23    11    12    1
    24    11    13    1
    25    11    25    1
    26    13    14   am
    27    13    36    1
    28    14    15    2
    29    14    16    1
    30    16    23   ar
    31    16    17   ar
    32    17    18    1
    33    17    19   ar
    34    19    20   ar
    35    19    37    1
    36    20    21   ar
    37    20    38    1
    38    21    22    1
    39    21    23   ar
    40    23    24    1
    41    24    39    1
    42    24    40    1
    43    24    41    1
    44    25    42    1
    45    25    43    1
@<TRIPOS>SUBSTRUCTURE
     1 ZINC000885154703        1 TEMP              0 ****  ****    0 ROOT


##########                                Name:    ZINC001015955459
##########                DOCK_Rotatable_Bonds:                   6
##########                         Heavy_Atoms:                  24
##########                    Molecular_Weight:             347.844
##########                DOCK_Rotatable_Bonds:                   6
##########                       Formal_Charge:          -0.0200002
##########                     HBond_Acceptors:                   6
##########                        HBond_Donors:                   1
##########                         Heavy_Atoms:                  24
##########                          Grid_Score:          -29.443720
##########                     Grid_vdw_energy:          -29.608335
##########                      Grid_es_energy:            0.164616
##########           Internal_energy_repulsive:           13.569400

@<TRIPOS>MOLECULE
ZINC001015955459
 46 48 1 0 0
SMALL
USER_CHARGES


@<TRIPOS>ATOM
      1 C1          1.8390    5.1673   46.6815 C.3     1  ZINC001015955459   -0.1500
      2 C2          0.4943    5.6630   46.1456 C.3     1  ZINC001015955459   -0.0300
      3 C3          0.4501    7.1909   46.2136 C.3     1  ZINC001015955459   -0.1500
      4 C4          0.3292    5.2189   44.7151 C.2     1  ZINC001015955459    0.0600
      5 C5         -0.0160    3.9736   44.2882 C.2     1  ZINC001015955459   -0.0800
      6 C6         -0.2989    2.8033   45.1388 C.2     1  ZINC001015955459    0.6100
      7 O7         -0.2347    1.6822   44.6717 O.2     1  ZINC001015955459   -0.5300
      8 N8         -0.6285    2.9756   46.4342 N.am    1  ZINC001015955459   -0.7100
      9 C9         -0.9079    1.8125   47.2800 C.3     1  ZINC001015955459    0.1400
     10 H10        -1.1350    0.9427   46.6635 H       1  ZINC001015955459    0.1000
     11 C11         0.2947    1.5179   48.2002 C.3     1  ZINC001015955459   -0.1300
     12 C12        -0.2533    1.6646   49.6359 C.3     1  ZINC001015955459    0.0200
     13 N13        -1.7143    1.4298   49.5047 N.3     1  ZINC001015955459   -0.4900
     14 C14        -2.4442    2.0045   50.6426 C.3     1  ZINC001015955459    0.0800
     15 C15        -3.8873    1.5744   50.5828 C.ar    1  ZINC001015955459   -0.1100
     16 C16        -4.2041    0.2476   50.3591 C.ar    1  ZINC001015955459   -0.1100
     17 C17        -5.5278   -0.1486   50.3089 C.ar    1  ZINC001015955459   -0.1000
     18 C18        -6.5350    0.7835   50.4717 C.ar    1  ZINC001015955459   -0.1100
     19 C19        -6.2185    2.1127   50.6903 C.ar    1  ZINC001015955459   -0.0300
     20 Cl20       -7.4832    3.2844   50.8942 Cl      1  ZINC001015955459   -0.0700
     21 C21        -4.8939    2.5076   50.7457 C.ar    1  ZINC001015955459   -0.1000
     22 C22        -2.0825    2.1140   48.2354 C.3     1  ZINC001015955459    0.0100
     23 N23        -0.0452    4.0105   42.9284 N.2     1  ZINC001015955459   -0.4600
     24 C24         0.2557    5.2142   42.5425 C.2     1  ZINC001015955459    0.1800
     25 O25         0.4942    5.9766   43.6190 O.3     1  ZINC001015955459   -0.1900
     26 H26         2.6459    5.5815   46.0770 H       1  ZINC001015955459    0.0600
     27 H27         1.9584    5.4885   47.7163 H       1  ZINC001015955459    0.0700
     28 H28         1.8704    4.0789   46.6331 H       1  ZINC001015955459    0.0600
     29 H29        -0.3127    5.2489   46.7501 H       1  ZINC001015955459    0.1300
     30 H30        -0.5078    7.5439   45.8319 H       1  ZINC001015955459    0.0600
     31 H31         0.5695    7.5120   47.2484 H       1  ZINC001015955459    0.0700
     32 H32         1.2570    7.6050   45.6093 H       1  ZINC001015955459    0.0600
     33 H33        -0.6808    3.8698   46.8065 H       1  ZINC001015955459    0.4100
     34 H34         0.6579    0.5035   48.0352 H       1  ZINC001015955459    0.0800
     35 H35         1.0929    2.2387   48.0224 H       1  ZINC001015955459    0.0700
     36 H36         0.1943    0.9178   50.2917 H       1  ZINC001015955459    0.0900
     37 H37        -0.0621    2.6683   50.0151 H       1  ZINC001015955459    0.0500
     38 H38        -1.9991    1.6546   51.5740 H       1  ZINC001015955459    0.0900
     39 H39        -2.3872    3.0922   50.5988 H       1  ZINC001015955459    0.0900
     40 H40        -3.4174   -0.4804   50.2274 H       1  ZINC001015955459    0.1300
     41 H41        -5.7747   -1.1860   50.1383 H       1  ZINC001015955459    0.1300
     42 H42        -7.5690    0.4746   50.4279 H       1  ZINC001015955459    0.1300
     43 H43        -4.6462    3.5451   50.9159 H       1  ZINC001015955459    0.1300
     44 H44        -2.1765    3.1882   48.3952 H       1  ZINC001015955459    0.0700
     45 H45        -3.0111    1.7053   47.8369 H       1  ZINC001015955459    0.0900
     46 H46         0.3101    5.5467   41.5165 H       1  ZINC001015955459    0.2600
@<TRIPOS>BOND
     1     1     2    1
     2     1    26    1
     3     1    27    1
     4     1    28    1
     5     2     3    1
     6     2     4    1
     7     2    29    1
     8     3    30    1
     9     3    31    1
    10     3    32    1
    11     4    25    1
    12     4     5    2
    13     5     6    1
    14     5    23    1
    15     6     7    2
    16     6     8   am
    17     8     9    1
    18     8    33    1
    19     9    10    1
    20     9    22    1
    21     9    11    1
    22    11    12    1
    23    11    34    1
    24    11    35    1
    25    12    13    1
    26    12    36    1
    27    12    37    1
    28    13    14    1
    29    13    22    1
    30    14    15    1
    31    14    38    1
    32    14    39    1
    33    15    21   ar
    34    15    16   ar
    35    16    17   ar
    36    16    40    1
    37    17    18   ar
    38    17    41    1
    39    18    19   ar
    40    18    42    1
    41    19    20    1
    42    19    21   ar
    43    21    43    1
    44    22    44    1
    45    22    45    1
    46    23    24    2
    47    24    25    1
    48    24    46    1
@<TRIPOS>SUBSTRUCTURE
     1 ZINC001015955459        1 TEMP              0 ****  ****    0 ROOT


##########                                Name:    ZINC001401207732
##########                DOCK_Rotatable_Bonds:                   8
##########                         Heavy_Atoms:                  23
##########                    Molecular_Weight:             337.446
##########                DOCK_Rotatable_Bonds:                   8
##########                       Formal_Charge:          -0.0199995
##########                     HBond_Acceptors:                   8
##########                        HBond_Donors:                   1
##########                         Heavy_Atoms:                  23
##########                          Grid_Score:          -29.436672
##########                     Grid_vdw_energy:          -28.620422
##########                      Grid_es_energy:           -0.816250
##########           Internal_energy_repulsive:           22.175953

@<TRIPOS>MOLECULE
ZINC001401207732
 46 47 1 0 0
SMALL
USER_CHARGES


@<TRIPOS>ATOM
      1 C1          2.6868    3.7360   42.9165 C.3     1  ZINC001401207732   -0.0900
      2 C2          1.7054    4.7312   43.4803 C.2     1  ZINC001401207732    0.1500
      3 C3          1.0368    4.5289   44.6433 C.2     1  ZINC001401207732   -0.3000
      4 C4          1.1511    3.3537   45.5136 C.2     1  ZINC001401207732    0.6100
      5 O5          2.1147    3.2308   46.2465 O.2     1  ZINC001401207732   -0.5200
      6 N6          0.1889    2.4101   45.5015 N.am    1  ZINC001401207732   -0.5900
      7 C7         -0.9712    2.5582   44.6191 C.3     1  ZINC001401207732    0.0700
      8 C8          0.3030    1.2364   46.3707 C.3     1  ZINC001401207732    0.1400
      9 H9         -0.5755    0.6038   46.2442 H       1  ZINC001401207732    0.1100
     10 C10         1.5587    0.4457   45.9977 C.3     1  ZINC001401207732   -0.1600
     11 C11         0.3998    1.6891   47.8290 C.3     1  ZINC001401207732    0.0500
     12 N12        -0.9515    1.8645   48.3778 N.3     1  ZINC001401207732   -0.6800
     13 C13        -0.9966    1.4855   49.7965 C.3     1  ZINC001401207732    0.1500
     14 C14        -2.3248    1.8903   50.3825 C.2     1  ZINC001401207732    0.1800
     15 N15        -3.4394    1.2007   50.3407 N.2     1  ZINC001401207732   -0.4800
     16 C16        -4.3519    1.9484   50.9867 C.2     1  ZINC001401207732    0.1800
     17 C17        -5.7989    1.5924   51.2116 C.3     1  ZINC001401207732   -0.0100
     18 C18        -6.6811    2.4376   50.2906 C.3     1  ZINC001401207732   -0.1500
     19 C19        -6.0132    0.1093   50.9030 C.3     1  ZINC001401207732   -0.1500
     20 N20        -3.7567    3.0342   51.3810 N.2     1  ZINC001401207732   -0.3800
     21 O21        -2.5902    3.0178   51.0489 O.3     1  ZINC001401207732    0.0900
     22 S22         0.0008    5.9278   44.9171 S.3     1  ZINC001401207732    0.1800
     23 C23         0.5658    6.6413   43.4701 C.2     1  ZINC001401207732    0.0100
     24 N24         1.4249    5.8659   42.8903 N.2     1  ZINC001401207732   -0.4800
     25 H25         2.1622    3.0385   42.2634 H       1  ZINC001401207732    0.0800
     26 H26         3.4513    4.2632   42.3459 H       1  ZINC001401207732    0.0800
     27 H27         3.1565    3.1867   43.7324 H       1  ZINC001401207732    0.1000
     28 H28        -1.7187    3.1862   45.1040 H       1  ZINC001401207732    0.0600
     29 H29        -0.6591    3.0216   43.6832 H       1  ZINC001401207732    0.0800
     30 H30        -1.3990    1.5770   44.4138 H       1  ZINC001401207732    0.0900
     31 H31         1.6436   -0.4276   46.6445 H       1  ZINC001401207732    0.0700
     32 H32         1.4897    0.1232   44.9588 H       1  ZINC001401207732    0.0700
     33 H33         2.4373    1.0783   46.1242 H       1  ZINC001401207732    0.0600
     34 H34         0.9386    2.6353   47.8806 H       1  ZINC001401207732    0.0800
     35 H35         0.9326    0.9355   48.4088 H       1  ZINC001401207732    0.0500
     36 H36        -1.6296    1.3431   47.8426 H       1  ZINC001401207732    0.3600
     37 H37        -0.1936    1.9907   50.3332 H       1  ZINC001401207732    0.1100
     38 H38        -0.8726    0.4065   49.8885 H       1  ZINC001401207732    0.0800
     39 H39        -6.0644    1.7895   52.2503 H       1  ZINC001401207732    0.1000
     40 H40        -7.7277    2.1802   50.4532 H       1  ZINC001401207732    0.0700
     41 H41        -6.5284    3.4942   50.5104 H       1  ZINC001401207732    0.0600
     42 H42        -6.4157    2.2405   49.2519 H       1  ZINC001401207732    0.0600
     43 H43        -5.3847   -0.4928   51.5591 H       1  ZINC001401207732    0.0600
     44 H44        -7.0597   -0.1482   51.0657 H       1  ZINC001401207732    0.0700
     45 H45        -5.7478   -0.0878   49.8644 H       1  ZINC001401207732    0.0600
     46 H46         0.2474    7.6010   43.0906 H       1  ZINC001401207732    0.2000
@<TRIPOS>BOND
     1     1     2    1
     2     1    25    1
     3     1    26    1
     4     1    27    1
     5     2    24    1
     6     2     3    2
     7     3     4    1
     8     3    22    1
     9     4     5    2
    10     4     6   am
    11     6     7    1
    12     6     8    1
    13     7    28    1
    14     7    29    1
    15     7    30    1
    16     8     9    1
    17     8    10    1
    18     8    11    1
    19    10    31    1
    20    10    32    1
    21    10    33    1
    22    11    12    1
    23    11    34    1
    24    11    35    1
    25    12    13    1
    26    12    36    1
    27    13    14    1
    28    13    37    1
    29    13    38    1
    30    14    21    1
    31    14    15    2
    32    15    16    1
    33    16    17    1
    34    16    20    2
    35    17    18    1
    36    17    19    1
    37    17    39    1
    38    18    40    1
    39    18    41    1
    40    18    42    1
    41    19    43    1
    42    19    44    1
    43    19    45    1
    44    20    21    1
    45    22    23    1
    46    23    24    2
    47    23    46    1
@<TRIPOS>SUBSTRUCTURE
     1 ZINC001401207732        1 TEMP              0 ****  ****    0 ROOT


##########                                Name:    ZINC000507831344
##########                DOCK_Rotatable_Bonds:                   6
##########                         Heavy_Atoms:                  31
##########                    Molecular_Weight:              422.53
##########                DOCK_Rotatable_Bonds:                   6
##########                       Formal_Charge:          -0.0200002
##########                     HBond_Acceptors:                   8
##########                        HBond_Donors:                   2
##########                         Heavy_Atoms:                  31
##########                          Grid_Score:          -29.431065
##########                     Grid_vdw_energy:          -28.045069
##########                      Grid_es_energy:           -1.385995
##########           Internal_energy_repulsive:          126.469727

@<TRIPOS>MOLECULE
ZINC000507831344
 61 64 1 0 0
SMALL
USER_CHARGES


@<TRIPOS>ATOM
      1 C1        -11.9462    0.0443   53.1761 C.3     1  ZINC000507831344   -0.1000
      2 C2        -11.3431    1.2374   52.4803 C.ar    1  ZINC000507831344   -0.0800
      3 C3         -9.9768    1.3161   52.2837 C.ar    1  ZINC000507831344   -0.0800
      4 C4         -9.4629    2.4379   51.6350 C.ar    1  ZINC000507831344    0.0900
      5 N5         -8.0840    2.5599   51.4137 N.am    1  ZINC000507831344   -0.6700
      6 C6         -7.3890    3.5442   52.0174 C.2     1  ZINC000507831344    0.5100
      7 O7         -7.9566    4.3246   52.7523 O.2     1  ZINC000507831344   -0.5100
      8 C8         -5.9066    3.6753   51.7795 C.3     1  ZINC000507831344   -0.1400
      9 C9         -5.1759    2.5191   52.4651 C.3     1  ZINC000507831344   -0.0500
     10 C10        -4.0218    2.0735   51.6045 C.2     1  ZINC000507831344   -0.2200
     11 C11        -2.8033    2.6619   51.7328 C.2     1  ZINC000507831344    0.2100
     12 C12        -2.5916    3.7660   52.7364 C.3     1  ZINC000507831344   -0.1400
     13 N13        -1.7776    2.2420   50.9452 N.pl3   1  ZINC000507831344   -0.3000
     14 N14        -0.4406    2.6462   50.8493 N.am    1  ZINC000507831344   -0.5100
     15 C15         0.1625    1.9040   49.9009 C.2     1  ZINC000507831344    0.5500
     16 O16         1.3306    1.9937   49.5592 O.2     1  ZINC000507831344   -0.5400
     17 C17        -0.7751    1.0157   49.3763 C.2     1  ZINC000507831344   -0.3500
     18 C18        -1.9826    1.2353   50.0354 C.2     1  ZINC000507831344    0.3500
     19 N19        -3.1858    0.6619   49.9165 N.2     1  ZINC000507831344   -0.4800
     20 C20        -4.1934    1.0463   50.6700 C.2     1  ZINC000507831344    0.2500
     21 C21        -5.5394    0.3854   50.5188 C.3     1  ZINC000507831344   -0.1200
     22 C22       -10.3320    3.4311   51.2108 C.ar    1  ZINC000507831344    0.0800
     23 N23       -11.6313    3.3233   51.4151 N.ar    1  ZINC000507831344   -0.4900
     24 C24       -12.1546    2.2704   52.0226 C.ar    1  ZINC000507831344    0.2800
     25 N25       -13.5317    2.2008   52.2153 N.3     1  ZINC000507831344   -0.4800
     26 C26       -14.0607    0.9057   51.7686 C.3     1  ZINC000507831344    0.0600
     27 C27       -15.5883    0.9187   51.8590 C.3     1  ZINC000507831344   -0.1200
     28 C28       -16.0067    1.1901   53.3067 C.3     1  ZINC000507831344   -0.1200
     29 C29       -15.4029    2.5211   53.7632 C.3     1  ZINC000507831344   -0.1100
     30 C30       -13.8807    2.4617   53.6176 C.3     1  ZINC000507831344    0.0900
     31 H31       -13.4868    1.6620   54.2448 H       1  ZINC000507831344    0.0600
     32 C32       -13.2744    3.7971   54.0536 C.3     1  ZINC000507831344   -0.1400
     33 H33       -12.2713   -0.6837   52.4329 H       1  ZINC000507831344    0.0700
     34 H34       -11.2011   -0.4106   53.8288 H       1  ZINC000507831344    0.0600
     35 H35       -12.8024    0.3646   53.7699 H       1  ZINC000507831344    0.0800
     36 H36        -9.3230    0.5273   52.6252 H       1  ZINC000507831344    0.1500
     37 H37        -7.6300    1.9359   50.8258 H       1  ZINC000507831344    0.4100
     38 H38        -5.7068    3.6473   50.7084 H       1  ZINC000507831344    0.1000
     39 H39        -5.5551    4.6218   52.1902 H       1  ZINC000507831344    0.1000
     40 H40        -4.8003    2.8498   53.4335 H       1  ZINC000507831344    0.0900
     41 H41        -5.8653    1.6870   52.6077 H       1  ZINC000507831344    0.1000
     42 H42        -2.2795    3.3367   53.6884 H       1  ZINC000507831344    0.1000
     43 H43        -1.8194    4.4441   52.3730 H       1  ZINC000507831344    0.0800
     44 H44        -3.5228    4.3158   52.8735 H       1  ZINC000507831344    0.1100
     45 H45        -0.0199    3.3434   51.3763 H       1  ZINC000507831344    0.4400
     46 H46        -0.5973    0.2881   48.5983 H       1  ZINC000507831344    0.1700
     47 H47        -5.4836   -0.3794   49.7441 H       1  ZINC000507831344    0.0900
     48 H48        -5.8263   -0.0752   51.4641 H       1  ZINC000507831344    0.1000
     49 H49        -6.2817    1.1329   50.2388 H       1  ZINC000507831344    0.0900
     50 H50        -9.9413    4.3033   50.7078 H       1  ZINC000507831344    0.1600
     51 H51       -13.7595    0.7270   50.7364 H       1  ZINC000507831344    0.0700
     52 H52       -13.6659    0.1134   52.4044 H       1  ZINC000507831344    0.0500
     53 H53       -15.9845    1.7020   51.2127 H       1  ZINC000507831344    0.0700
     54 H54       -15.9798   -0.0479   51.5421 H       1  ZINC000507831344    0.0700
     55 H55       -17.0937    1.2432   53.3678 H       1  ZINC000507831344    0.0700
     56 H56       -15.6438    0.3866   53.9475 H       1  ZINC000507831344    0.0600
     57 H57       -15.7962    3.3296   53.1470 H       1  ZINC000507831344    0.0700
     58 H58       -15.6620    2.6994   54.8069 H       1  ZINC000507831344    0.0700
     59 H59       -13.4581    3.9496   55.1171 H       1  ZINC000507831344    0.0600
     60 H60       -12.2003    3.7862   53.8683 H       1  ZINC000507831344    0.0500
     61 H61       -13.7328    4.6069   53.4859 H       1  ZINC000507831344    0.0600
@<TRIPOS>BOND
     1     1     2    1
     2     1    33    1
     3     1    34    1
     4     1    35    1
     5     2    24   ar
     6     2     3   ar
     7     3     4   ar
     8     3    36    1
     9     4     5    1
    10     4    22   ar
    11     5     6   am
    12     5    37    1
    13     6     7    2
    14     6     8    1
    15     8     9    1
    16     8    38    1
    17     8    39    1
    18     9    10    1
    19     9    40    1
    20     9    41    1
    21    10    20    1
    22    10    11    2
    23    11    12    1
    24    11    13    1
    25    12    42    1
    26    12    43    1
    27    12    44    1
    28    13    18    1
    29    13    14    1
    30    14    15   am
    31    14    45    1
    32    15    16    2
    33    15    17    1
    34    17    18    2
    35    17    46    1
    36    18    19    1
    37    19    20    2
    38    20    21    1
    39    21    47    1
    40    21    48    1
    41    21    49    1
    42    22    23   ar
    43    22    50    1
    44    23    24   ar
    45    24    25    1
    46    25    30    1
    47    25    26    1
    48    26    27    1
    49    26    51    1
    50    26    52    1
    51    27    28    1
    52    27    53    1
    53    27    54    1
    54    28    29    1
    55    28    55    1
    56    28    56    1
    57    29    30    1
    58    29    57    1
    59    29    58    1
    60    30    31    1
    61    30    32    1
    62    32    59    1
    63    32    60    1
    64    32    61    1
@<TRIPOS>SUBSTRUCTURE
     1 ZINC000507831344        1 TEMP              0 ****  ****    0 ROOT


##########                                Name:    ZINC000329637067
##########                DOCK_Rotatable_Bonds:                   5
##########                         Heavy_Atoms:                  26
##########                    Molecular_Weight:             362.429
##########                DOCK_Rotatable_Bonds:                   5
##########                       Formal_Charge:           0.0199998
##########                     HBond_Acceptors:                   8
##########                        HBond_Donors:                   0
##########                         Heavy_Atoms:                  26
##########                          Grid_Score:          -29.430365
##########                     Grid_vdw_energy:          -28.710093
##########                      Grid_es_energy:           -0.720271
##########           Internal_energy_repulsive:           27.504539

@<TRIPOS>MOLECULE
ZINC000329637067
 52 54 1 0 0
SMALL
USER_CHARGES


@<TRIPOS>ATOM
      1 C1         -5.0036    3.4701   52.9374 C.3     1  ZINC000329637067   -0.1300
      2 C2         -4.5882    2.4841   51.8761 C.2     1  ZINC000329637067    0.2200
      3 C3         -3.3212    2.4985   51.3811 C.2     1  ZINC000329637067   -0.2900
      4 C4         -2.9657    1.5713   50.3971 C.2     1  ZINC000329637067    0.2800
      5 C5         -1.5682    1.5667   49.8331 C.3     1  ZINC000329637067   -0.1200
      6 N6         -3.8553    0.7010   49.9644 N.2     1  ZINC000329637067   -0.5500
      7 C7         -5.0975    0.6916   50.4542 C.2     1  ZINC000329637067    0.6400
      8 O8         -5.9019   -0.1243   50.0366 O.2     1  ZINC000329637067   -0.5300
      9 N9         -5.4728    1.5662   51.4062 N.am    1  ZINC000329637067   -0.5000
     10 C10        -6.8414    1.5359   51.9281 C.3     1  ZINC000329637067    0.0700
     11 C11        -7.6291    2.6776   51.3389 C.2     1  ZINC000329637067    0.5100
     12 O12        -7.1946    3.2845   50.3830 O.2     1  ZINC000329637067   -0.5200
     13 N13        -8.8165    3.0242   51.8742 N.am    1  ZINC000329637067   -0.6100
     14 C14        -9.5959    4.1350   51.3108 C.3     1  ZINC000329637067    0.1000
     15 C15       -11.0093    3.6356   50.9957 C.3     1  ZINC000329637067   -0.1400
     16 C16       -11.6192    3.0147   52.2545 C.3     1  ZINC000329637067   -0.1000
     17 C17       -10.7723    1.8196   52.6976 C.3     1  ZINC000329637067   -0.1200
     18 H18       -10.7277    1.0866   51.8921 H       1  ZINC000329637067    0.1000
     19 C19       -11.3920    1.1888   53.9179 C.2     1  ZINC000329637067    0.5300
     20 O20       -10.9901    1.4839   55.0234 O.2     1  ZINC000329637067   -0.5300
     21 N21       -12.3928    0.2965   53.7806 N.am    1  ZINC000329637067   -0.6200
     22 C22       -13.0176   -0.3279   54.9575 C.3     1  ZINC000329637067    0.0800
     23 C23       -14.5381   -0.1763   54.8353 C.3     1  ZINC000329637067    0.0500
     24 O24       -14.9586   -0.6646   53.5591 O.3     1  ZINC000329637067   -0.3800
     25 C25       -14.4199    0.0580   52.4494 C.3     1  ZINC000329637067    0.0500
     26 C26       -12.8971   -0.0773   52.4498 C.3     1  ZINC000329637067    0.0700
     27 C27        -9.3589    2.2946   53.0282 C.3     1  ZINC000329637067    0.1200
     28 H28        -5.3925    2.9315   53.8016 H       1  ZINC000329637067    0.0900
     29 H29        -4.1412    4.0651   53.2380 H       1  ZINC000329637067    0.1000
     30 H30        -5.7775    4.1268   52.5402 H       1  ZINC000329637067    0.0900
     31 H31        -2.6003    3.2166   51.7429 H       1  ZINC000329637067    0.1600
     32 H32        -0.9390    0.9035   50.4268 H       1  ZINC000329637067    0.1000
     33 H33        -1.5938    1.2161   48.8014 H       1  ZINC000329637067    0.0900
     34 H34        -1.1609    2.5774   49.8634 H       1  ZINC000329637067    0.0900
     35 H35        -7.3128    0.5913   51.6572 H       1  ZINC000329637067    0.1200
     36 H36        -6.8184    1.6324   53.0137 H       1  ZINC000329637067    0.1300
     37 H37        -9.6486    4.9484   52.0345 H       1  ZINC000329637067    0.0800
     38 H38        -9.1205    4.4878   50.3956 H       1  ZINC000329637067    0.0900
     39 H39       -11.6261    4.4722   50.6672 H       1  ZINC000329637067    0.0900
     40 H40       -10.9626    2.8856   50.2061 H       1  ZINC000329637067    0.0700
     41 H41       -11.6430    3.7583   53.0512 H       1  ZINC000329637067    0.0800
     42 H42       -12.6342    2.6807   52.0395 H       1  ZINC000329637067    0.0800
     43 H43       -12.7558   -1.3854   54.9944 H       1  ZINC000329637067    0.0800
     44 H44       -12.6709    0.1684   55.8639 H       1  ZINC000329637067    0.1000
     45 H45       -15.0257   -0.7502   55.6233 H       1  ZINC000329637067    0.1100
     46 H46       -14.8079    0.8755   54.9296 H       1  ZINC000329637067    0.0600
     47 H47       -14.8224   -0.3472   51.5211 H       1  ZINC000329637067    0.1100
     48 H48       -14.6893    1.1107   52.5351 H       1  ZINC000329637067    0.0600
     49 H49       -12.4697    0.5826   51.6949 H       1  ZINC000329637067    0.1000
     50 H50       -12.6202   -1.1095   52.2350 H       1  ZINC000329637067    0.0800
     51 H51        -8.7266    1.4344   53.2486 H       1  ZINC000329637067    0.1000
     52 H52        -9.3894    2.9589   53.8918 H       1  ZINC000329637067    0.0800
@<TRIPOS>BOND
     1     1     2    1
     2     1    28    1
     3     1    29    1
     4     1    30    1
     5     2     9    1
     6     2     3    2
     7     3     4    1
     8     3    31    1
     9     4     5    1
    10     4     6    2
    11     5    32    1
    12     5    33    1
    13     5    34    1
    14     6     7    1
    15     7     8    2
    16     7     9   am
    17     9    10    1
    18    10    11    1
    19    10    35    1
    20    10    36    1
    21    11    12    2
    22    11    13   am
    23    13    27    1
    24    13    14    1
    25    14    15    1
    26    14    37    1
    27    14    38    1
    28    15    16    1
    29    15    39    1
    30    15    40    1
    31    16    17    1
    32    16    41    1
    33    16    42    1
    34    17    18    1
    35    17    19    1
    36    17    27    1
    37    19    20    2
    38    19    21   am
    39    21    26    1
    40    21    22    1
    41    22    23    1
    42    22    43    1
    43    22    44    1
    44    23    24    1
    45    23    45    1
    46    23    46    1
    47    24    25    1
    48    25    26    1
    49    25    47    1
    50    25    48    1
    51    26    49    1
    52    26    50    1
    53    27    51    1
    54    27    52    1
@<TRIPOS>SUBSTRUCTURE
     1 ZINC000329637067        1 TEMP              0 ****  ****    0 ROOT


##########                                Name:    ZINC000291574087
##########                DOCK_Rotatable_Bonds:                   8
##########                         Heavy_Atoms:                  23
##########                    Molecular_Weight:             387.249
##########                DOCK_Rotatable_Bonds:                   8
##########                       Formal_Charge:          -0.0400007
##########                     HBond_Acceptors:                   6
##########                        HBond_Donors:                   2
##########                         Heavy_Atoms:                  23
##########                          Grid_Score:          -29.420578
##########                     Grid_vdw_energy:          -28.860395
##########                      Grid_es_energy:           -0.560182
##########           Internal_energy_repulsive:           24.873247

@<TRIPOS>MOLECULE
ZINC000291574087
 43 44 1 0 0
SMALL
USER_CHARGES


@<TRIPOS>ATOM
      1 C1         -7.7318    4.2860   49.2693 C.3     1  ZINC000291574087    0.0200
      2 O2         -7.0412    3.0574   49.5054 O.3     1  ZINC000291574087   -0.3700
      3 C3         -6.8635    2.7472   50.8890 C.3     1  ZINC000291574087    0.1400
      4 C4         -6.3083    3.9718   51.6190 C.3     1  ZINC000291574087   -0.1500
      5 C5         -5.8821    1.5818   51.0285 C.3     1  ZINC000291574087    0.0900
      6 N6         -4.5343    2.0332   50.6736 N.am    1  ZINC000291574087   -0.6900
      7 C7         -3.5956    1.1353   50.3143 C.2     1  ZINC000291574087    0.5100
      8 O8         -3.8664   -0.0473   50.2861 O.2     1  ZINC000291574087   -0.5100
      9 C9         -2.2222    1.5958   49.9509 C.2     1  ZINC000291574087    0.5100
     10 O10        -1.9179    2.7632   50.0854 O.2     1  ZINC000291574087   -0.4900
     11 N11        -1.3206    0.7151   49.4736 N.am    1  ZINC000291574087   -0.6400
     12 C12        -0.0344    1.1463   49.1332 C.ar    1  ZINC000291574087    0.1300
     13 C13         0.8993    1.4031   50.1281 C.ar    1  ZINC000291574087   -0.1000
     14 C14         2.1693    1.8285   49.7891 C.ar    1  ZINC000291574087   -0.0400
     15 C15         3.1825    2.1073   50.8691 C.3     1  ZINC000291574087   -0.1300
     16 C16         2.5124    1.9986   48.4598 C.ar    1  ZINC000291574087   -0.0900
     17 Br17        4.2526    2.5798   48.0017 Br      1  ZINC000291574087   -0.0300
     18 C18         1.5852    1.7438   47.4644 C.ar    1  ZINC000291574087   -0.1000
     19 C19         0.3141    1.3132   47.7964 C.ar    1  ZINC000291574087    0.0700
     20 F20        -0.5912    1.0645   46.8250 F       1  ZINC000291574087   -0.1300
     21 C21        -8.2102    2.3559   51.5009 C.3     1  ZINC000291574087   -0.1900
     22 C22        -8.4410    0.8759   51.8127 C.3     1  ZINC000291574087   -0.1700
     23 C23        -8.2126    1.8712   52.9521 C.3     1  ZINC000291574087   -0.1600
     24 H24        -7.8263    4.4492   48.1957 H       1  ZINC000291574087    0.0900
     25 H25        -8.7241    4.2371   49.7180 H       1  ZINC000291574087    0.0400
     26 H26        -7.1721    5.1088   49.7141 H       1  ZINC000291574087    0.0500
     27 H27        -7.0075    4.8020   51.5196 H       1  ZINC000291574087    0.0700
     28 H28        -6.1728    3.7351   52.6743 H       1  ZINC000291574087    0.0800
     29 H29        -5.3489    4.2505   51.1831 H       1  ZINC000291574087    0.0700
     30 H30        -5.8862    1.2245   52.0582 H       1  ZINC000291574087    0.0900
     31 H31        -6.1814    0.7729   50.3620 H       1  ZINC000291574087    0.0800
     32 H32        -4.3175    2.9784   50.6973 H       1  ZINC000291574087    0.4200
     33 H33        -1.5636   -0.2178   49.3661 H       1  ZINC000291574087    0.4300
     34 H34         0.6328    1.2708   51.1663 H       1  ZINC000291574087    0.1600
     35 H35         3.7424    1.1975   51.0857 H       1  ZINC000291574087    0.0800
     36 H36         3.8685    2.8844   50.5320 H       1  ZINC000291574087    0.0800
     37 H37         2.6696    2.4416   51.7710 H       1  ZINC000291574087    0.0800
     38 H38         1.8560    1.8779   46.4275 H       1  ZINC000291574087    0.1500
     39 H39        -9.0670    2.9391   51.1635 H       1  ZINC000291574087    0.1100
     40 H40        -9.4500    0.4850   51.6805 H       1  ZINC000291574087    0.1000
     41 H41        -7.6336    0.1810   51.5820 H       1  ZINC000291574087    0.1000
     42 H42        -7.2549    1.8311   53.4709 H       1  ZINC000291574087    0.1000
     43 H43        -9.0713    2.1353   53.5693 H       1  ZINC000291574087    0.1000
@<TRIPOS>BOND
     1     1     2    1
     2     1    24    1
     3     1    25    1
     4     1    26    1
     5     2     3    1
     6     3     4    1
     7     3     5    1
     8     3    21    1
     9     4    27    1
    10     4    28    1
    11     4    29    1
    12     5     6    1
    13     5    30    1
    14     5    31    1
    15     6     7   am
    16     6    32    1
    17     7     8    2
    18     7     9    1
    19     9    10    2
    20     9    11   am
    21    11    12    1
    22    11    33    1
    23    12    19   ar
    24    12    13   ar
    25    13    14   ar
    26    13    34    1
    27    14    15    1
    28    14    16   ar
    29    15    35    1
    30    15    36    1
    31    15    37    1
    32    16    17    1
    33    16    18   ar
    34    18    19   ar
    35    18    38    1
    36    19    20    1
    37    21    23    1
    38    21    22    1
    39    21    39    1
    40    22    23    1
    41    22    40    1
    42    22    41    1
    43    23    42    1
    44    23    43    1
@<TRIPOS>SUBSTRUCTURE
     1 ZINC000291574087        1 TEMP              0 ****  ****    0 ROOT


##########                                Name:    ZINC000271662144
##########                DOCK_Rotatable_Bonds:                   8
##########                         Heavy_Atoms:                  26
##########                    Molecular_Weight:             390.402
##########                DOCK_Rotatable_Bonds:                   8
##########                       Formal_Charge:          0.00999944
##########                     HBond_Acceptors:                   9
##########                        HBond_Donors:                   3
##########                         Heavy_Atoms:                  26
##########                          Grid_Score:          -29.388214
##########                     Grid_vdw_energy:          -29.525293
##########                      Grid_es_energy:            0.137080
##########           Internal_energy_repulsive:           11.828551

@<TRIPOS>MOLECULE
ZINC000271662144
 44 45 1 0 0
SMALL
USER_CHARGES


@<TRIPOS>ATOM
      1 C1          0.4171    1.7153   49.8427 C.3     1  ZINC000271662144   -0.1400
      2 C2         -0.8433    2.0262   49.0330 C.3     1  ZINC000271662144    0.1200
      3 H3         -1.1389    1.1427   48.4673 H       1  ZINC000271662144    0.0600
      4 N4         -0.5692    3.1323   48.1059 N.3     1  ZINC000271662144   -0.6700
      5 C5          0.0467    2.6398   46.8664 C.3     1  ZINC000271662144    0.1300
      6 H6          0.8111    1.9015   47.1090 H       1  ZINC000271662144    0.1100
      7 C7         -1.0250    1.9940   45.9860 C.3     1  ZINC000271662144   -0.2000
      8 C8         -0.5206    0.6421   45.4772 C.3     1  ZINC000271662144    0.4600
      9 F9          0.6688    0.8266   44.7641 F       1  ZINC000271662144   -0.1800
     10 F10        -0.2858   -0.2071   46.5639 F       1  ZINC000271662144   -0.1800
     11 F11        -1.4834    0.0708   44.6383 F       1  ZINC000271662144   -0.1700
     12 C12         0.6773    3.7915   46.1269 C.ar    1  ZINC000271662144   -0.0900
     13 C13         0.1058    5.0487   46.1899 C.ar    1  ZINC000271662144   -0.0600
     14 C14         0.6832    6.1056   45.5122 C.ar    1  ZINC000271662144   -0.1600
     15 C15         1.8349    5.9050   44.7701 C.ar    1  ZINC000271662144    0.1000
     16 F16         2.4005    6.9376   44.1075 F       1  ZINC000271662144   -0.1400
     17 C17         2.4067    4.6455   44.7081 C.ar    1  ZINC000271662144   -0.1500
     18 C18         1.8301    3.5912   45.3906 C.ar    1  ZINC000271662144   -0.0700
     19 C19        -1.9572    2.4196   49.9688 C.ar    1  ZINC000271662144   -0.1100
     20 C20        -1.8426    3.5622   50.7378 C.ar    1  ZINC000271662144   -0.0400
     21 C21        -2.8646    3.9231   51.5962 C.ar    1  ZINC000271662144   -0.1400
     22 C22        -4.0009    3.1413   51.6851 C.ar    1  ZINC000271662144   -0.0200
     23 C23        -4.1160    1.9987   50.9152 C.ar    1  ZINC000271662144   -0.6800
     24 S24        -5.5643    1.0018   51.0289 S.o2    1  ZINC000271662144    2.7000
     25 N25        -6.5131    1.3649   49.7212 N.am    1  ZINC000271662144   -1.2500
     26 O26        -5.1402   -0.3433   50.8559 O.2     1  ZINC000271662144   -0.9600
     27 O27        -6.2723    1.4520   52.1758 O.2     1  ZINC000271662144   -0.9600
     28 C28        -3.0962    1.6403   50.0539 C.ar    1  ZINC000271662144   -0.0100
     29 H29         1.2228    1.4308   49.1659 H       1  ZINC000271662144    0.0600
     30 H30         0.7127    2.5989   50.4084 H       1  ZINC000271662144    0.0700
     31 H31         0.2137    0.8946   50.5307 H       1  ZINC000271662144    0.0600
     32 H32        -1.4091    3.6557   47.9091 H       1  ZINC000271662144    0.3500
     33 H33        -1.9340    1.8464   46.5692 H       1  ZINC000271662144    0.1100
     34 H34        -1.2391    2.6444   45.1380 H       1  ZINC000271662144    0.1200
     35 H35        -0.7925    5.2049   46.7688 H       1  ZINC000271662144    0.1300
     36 H36         0.2362    7.0874   45.5609 H       1  ZINC000271662144    0.1400
     37 H37         3.3047    4.4878   44.1294 H       1  ZINC000271662144    0.1400
     38 H38         2.2762    2.6088   45.3427 H       1  ZINC000271662144    0.1300
     39 H39        -0.9547    4.1731   50.6684 H       1  ZINC000271662144    0.1400
     40 H40        -2.7748    4.8156   52.1977 H       1  ZINC000271662144    0.1400
     41 H41        -4.7989    3.4228   52.3563 H       1  ZINC000271662144    0.1400
     42 H42        -6.1745    1.2260   48.8229 H       1  ZINC000271662144    0.4200
     43 H43        -7.4074    1.7164   49.8534 H       1  ZINC000271662144    0.4200
     44 H44        -3.1859    0.7478   49.4524 H       1  ZINC000271662144    0.1400
@<TRIPOS>BOND
     1     1     2    1
     2     1    29    1
     3     1    30    1
     4     1    31    1
     5     2     3    1
     6     2     4    1
     7     2    19    1
     8     4     5    1
     9     4    32    1
    10     5     6    1
    11     5     7    1
    12     5    12    1
    13     7     8    1
    14     7    33    1
    15     7    34    1
    16     8     9    1
    17     8    10    1
    18     8    11    1
    19    12    18   ar
    20    12    13   ar
    21    13    14   ar
    22    13    35    1
    23    14    15   ar
    24    14    36    1
    25    15    16    1
    26    15    17   ar
    27    17    18   ar
    28    17    37    1
    29    18    38    1
    30    19    28   ar
    31    19    20   ar
    32    20    21   ar
    33    20    39    1
    34    21    22   ar
    35    21    40    1
    36    22    23   ar
    37    22    41    1
    38    23    24    1
    39    23    28   ar
    40    24    25   am
    41    24    26    2
    42    24    27    2
    43    25    42    1
    44    25    43    1
    45    28    44    1
@<TRIPOS>SUBSTRUCTURE
     1 ZINC000271662144        1 TEMP              0 ****  ****    0 ROOT


##########                                Name:    ZINC001341052241
##########                DOCK_Rotatable_Bonds:                   7
##########                         Heavy_Atoms:                  24
##########                    Molecular_Weight:             336.478
##########                DOCK_Rotatable_Bonds:                   7
##########                       Formal_Charge:         5.96046e-08
##########                     HBond_Acceptors:                   6
##########                        HBond_Donors:                   0
##########                         Heavy_Atoms:                  24
##########                          Grid_Score:          -29.384109
##########                     Grid_vdw_energy:          -27.939091
##########                      Grid_es_energy:           -1.445018
##########           Internal_energy_repulsive:            7.806020

@<TRIPOS>MOLECULE
ZINC001341052241
 56 58 1 0 0
SMALL
USER_CHARGES


@<TRIPOS>ATOM
      1 C1         -1.1336    3.7927   52.6063 C.3     1  ZINC001341052241   -0.1700
      2 C2         -1.7819    4.1651   51.2714 C.3     1  ZINC001341052241    0.1100
      3 N3         -2.5458    3.0228   50.7640 N.pl3   1  ZINC001341052241   -0.4500
      4 C4         -3.7888    2.6174   51.1646 C.2     1  ZINC001341052241    0.1800
      5 C5         -4.6429    3.2682   52.2221 C.3     1  ZINC001341052241    0.1500
      6 O6         -6.0200    3.1567   51.8573 O.3     1  ZINC001341052241   -0.3700
      7 C7         -6.4116    4.0267   50.7933 C.3     1  ZINC001341052241    0.0900
      8 C8         -6.8602    5.3701   51.3720 C.3     1  ZINC001341052241   -0.1400
      9 C9         -7.2795    6.3015   50.2329 C.3     1  ZINC001341052241   -0.1200
     10 C10        -8.4361    5.6690   49.4563 C.3     1  ZINC001341052241   -0.1200
     11 C11        -7.9875    4.3256   48.8777 C.3     1  ZINC001341052241   -0.1200
     12 C12        -7.5682    3.3941   50.0168 C.3     1  ZINC001341052241   -0.1200
     13 N13        -4.0983    1.5647   50.4621 N.2     1  ZINC001341052241   -0.2600
     14 N14        -3.1453    1.2828   49.6471 N.2     1  ZINC001341052241   -0.3100
     15 C15        -2.1645    2.1422   49.7940 C.2     1  ZINC001341052241    0.3500
     16 N16        -0.9696    2.1562   49.0923 N.3     1  ZINC001341052241   -0.4600
     17 C17        -0.1546    0.9787   49.4173 C.3     1  ZINC001341052241    0.0700
     18 C18         1.2123    1.1000   48.7398 C.3     1  ZINC001341052241   -0.1100
     19 C19         1.0180    1.2070   47.2249 C.3     1  ZINC001341052241   -0.0900
     20 C20         2.3773    1.3898   46.5467 C.3     1  ZINC001341052241    0.0700
     21 O21         2.5766    0.3467   45.5904 O.3     1  ZINC001341052241   -0.3900
     22 C22         1.8623    0.5353   44.3672 C.3     1  ZINC001341052241    0.0300
     23 C23         0.1261    2.4128   46.9165 C.3     1  ZINC001341052241   -0.1100
     24 C24        -1.2093    2.2534   47.6468 C.3     1  ZINC001341052241    0.0700
     25 H25        -1.9081    3.5161   53.3216 H       1  ZINC001341052241    0.0600
     26 H26        -0.4572    2.9507   52.4594 H       1  ZINC001341052241    0.0700
     27 H27        -0.5736    4.6461   52.9888 H       1  ZINC001341052241    0.0800
     28 H28        -1.0068    4.4318   50.5529 H       1  ZINC001341052241    0.0900
     29 H29        -2.4504    5.0138   51.4163 H       1  ZINC001341052241    0.1000
     30 H30        -4.4790    2.7711   53.1782 H       1  ZINC001341052241    0.0900
     31 H31        -4.3740    4.3209   52.3090 H       1  ZINC001341052241    0.0700
     32 H32        -5.5667    4.1838   50.1227 H       1  ZINC001341052241    0.0600
     33 H33        -7.7051    5.2130   52.0425 H       1  ZINC001341052241    0.0700
     34 H34        -6.0362    5.8208   51.9252 H       1  ZINC001341052241    0.0700
     35 H35        -6.4346    6.4587   49.5624 H       1  ZINC001341052241    0.0600
     36 H36        -7.5991    7.2587   50.6452 H       1  ZINC001341052241    0.0700
     37 H37        -8.7348    6.3326   48.6449 H       1  ZINC001341052241    0.0600
     38 H38        -9.2810    5.5118   50.1269 H       1  ZINC001341052241    0.0600
     39 H39        -7.1427    4.4827   48.2071 H       1  ZINC001341052241    0.0600
     40 H40        -8.8115    3.8750   48.3245 H       1  ZINC001341052241    0.0700
     41 H41        -7.2486    2.4370   49.6045 H       1  ZINC001341052241    0.0700
     42 H42        -8.4131    3.2370   50.6873 H       1  ZINC001341052241    0.0700
     43 H43        -0.6576    0.0794   49.0617 H       1  ZINC001341052241    0.0600
     44 H44        -0.0204    0.9167   50.4972 H       1  ZINC001341052241    0.0800
     45 H45         1.8113    0.2186   48.9686 H       1  ZINC001341052241    0.0800
     46 H46         1.7217    1.9918   49.1053 H       1  ZINC001341052241    0.0800
     47 H47         0.5447    0.2982   46.8532 H       1  ZINC001341052241    0.0800
     48 H48         3.1663    1.3497   47.2976 H       1  ZINC001341052241    0.0500
     49 H49         2.4047    2.3554   46.0420 H       1  ZINC001341052241    0.0500
     50 H50         0.7932    0.5820   44.5742 H       1  ZINC001341052241    0.0400
     51 H51         2.0663   -0.2983   43.6951 H       1  ZINC001341052241    0.0900
     52 H52         2.1828    1.4661   43.8992 H       1  ZINC001341052241    0.0400
     53 H53         0.6185    3.3252   47.2532 H       1  ZINC001341052241    0.0700
     54 H54        -0.0509    2.4693   45.8424 H       1  ZINC001341052241    0.0800
     55 H55        -1.7074    1.3483   47.2995 H       1  ZINC001341052241    0.0600
     56 H56        -1.8413    3.1173   47.4407 H       1  ZINC001341052241    0.0800
@<TRIPOS>BOND
     1     1     2    1
     2     1    25    1
     3     1    26    1
     4     1    27    1
     5     2     3    1
     6     2    28    1
     7     2    29    1
     8     3    15    1
     9     3     4    1
    10     4     5    1
    11     4    13    2
    12     5     6    1
    13     5    30    1
    14     5    31    1
    15     6     7    1
    16     7    12    1
    17     7     8    1
    18     7    32    1
    19     8     9    1
    20     8    33    1
    21     8    34    1
    22     9    10    1
    23     9    35    1
    24     9    36    1
    25    10    11    1
    26    10    37    1
    27    10    38    1
    28    11    12    1
    29    11    39    1
    30    11    40    1
    31    12    41    1
    32    12    42    1
    33    13    14    1
    34    14    15    2
    35    15    16    1
    36    16    24    1
    37    16    17    1
    38    17    18    1
    39    17    43    1
    40    17    44    1
    41    18    19    1
    42    18    45    1
    43    18    46    1
    44    19    20    1
    45    19    23    1
    46    19    47    1
    47    20    21    1
    48    20    48    1
    49    20    49    1
    50    21    22    1
    51    22    50    1
    52    22    51    1
    53    22    52    1
    54    23    24    1
    55    23    53    1
    56    23    54    1
    57    24    55    1
    58    24    56    1
@<TRIPOS>SUBSTRUCTURE
     1 ZINC001341052241        1 TEMP              0 ****  ****    0 ROOT


##########                                Name:    ZINC000967287417
##########                DOCK_Rotatable_Bonds:                   7
##########                         Heavy_Atoms:                  25
##########                    Molecular_Weight:             347.414
##########                DOCK_Rotatable_Bonds:                   7
##########                       Formal_Charge:          -0.0200002
##########                     HBond_Acceptors:                   7
##########                        HBond_Donors:                   1
##########                         Heavy_Atoms:                  25
##########                          Grid_Score:          -29.356873
##########                     Grid_vdw_energy:          -28.841539
##########                      Grid_es_energy:           -0.515332
##########           Internal_energy_repulsive:           10.909590

@<TRIPOS>MOLECULE
ZINC000967287417
 50 52 1 0 0
SMALL
USER_CHARGES


@<TRIPOS>ATOM
      1 C1          1.3553    0.3710   43.6459 C.3     1  ZINC000967287417    0.0300
      2 O2         -0.0656    0.3519   43.4942 O.3     1  ZINC000967287417   -0.3900
      3 C3         -0.7815    0.7035   44.6799 C.3     1  ZINC000967287417    0.1400
      4 C4         -0.4436    2.1196   45.0693 C.2     1  ZINC000967287417    0.0100
      5 C5         -0.1448    3.1212   44.2128 C.2     1  ZINC000967287417   -0.1900
      6 C6          0.1035    4.2659   44.9864 C.2     1  ZINC000967287417   -0.1200
      7 C7         -0.0583    3.9001   46.2919 C.2     1  ZINC000967287417   -0.0700
      8 C8          0.1009    4.7749   47.4581 C.2     1  ZINC000967287417    0.6100
      9 O9          0.2238    5.9760   47.3055 O.2     1  ZINC000967287417   -0.5200
     10 N10         0.1114    4.2488   48.6989 N.am    1  ZINC000967287417   -0.7000
     11 C11         0.2687    5.1229   49.8640 C.3     1  ZINC000967287417    0.1600
     12 H12         0.1894    6.1641   49.5511 H       1  ZINC000967287417    0.1000
     13 C13        -0.8259    4.8123   50.8873 C.3     1  ZINC000967287417    0.0400
     14 N14        -0.7070    3.4153   51.3241 N.3     1  ZINC000967287417   -0.5300
     15 C15        -1.8242    3.0413   52.2016 C.3     1  ZINC000967287417    0.1300
     16 C16        -2.8022    2.1894   51.4343 C.2     1  ZINC000967287417    0.0200
     17 N17        -2.5154    1.2432   50.5875 N.2     1  ZINC000967287417   -0.3500
     18 O18        -3.5138    0.7370   50.1303 O.3     1  ZINC000967287417    0.1000
     19 C19        -4.6238    1.2986   50.6296 C.2     1  ZINC000967287417   -0.0300
     20 C20        -6.0476    0.9329   50.2976 C.3     1  ZINC000967287417   -0.0800
     21 C21        -4.2131    2.2553   51.4960 C.2     1  ZINC000967287417   -0.2400
     22 C22         0.5831    3.1726   51.9821 C.3     1  ZINC000967287417    0.0500
     23 C23         1.7197    3.4345   50.9915 C.3     1  ZINC000967287417   -0.1100
     24 C24         1.6402    4.8837   50.5011 C.3     1  ZINC000967287417   -0.1000
     25 H25         1.7734    5.5613   51.3444 H       1  ZINC000967287417    0.0900
     26 C26         2.7385    5.1341   49.4656 C.3     1  ZINC000967287417   -0.1500
     27 O27        -0.3957    2.5941   46.3208 O.3     1  ZINC000967287417   -0.1600
     28 H28         1.6475   -0.3382   44.4204 H       1  ZINC000967287417    0.0500
     29 H29         1.8252    0.0929   42.7025 H       1  ZINC000967287417    0.0900
     30 H30         1.6768    1.3728   43.9306 H       1  ZINC000967287417    0.0500
     31 H31        -1.8526    0.6234   44.4949 H       1  ZINC000967287417    0.0900
     32 H32        -0.5007    0.0278   45.4877 H       1  ZINC000967287417    0.0700
     33 H33        -0.1046    3.0538   43.1357 H       1  ZINC000967287417    0.1600
     34 H34         0.3709    5.2461   44.6199 H       1  ZINC000967287417    0.1600
     35 H35         0.0147    3.2913   48.8205 H       1  ZINC000967287417    0.4100
     36 H36        -0.7166    5.4724   51.7478 H       1  ZINC000967287417    0.0500
     37 H37        -1.8039    4.9684   50.4319 H       1  ZINC000967287417    0.0900
     38 H38        -1.4439    2.4791   53.0545 H       1  ZINC000967287417    0.0600
     39 H39        -2.3262    3.9421   52.5549 H       1  ZINC000967287417    0.0900
     40 H40        -6.0542    0.1213   49.5702 H       1  ZINC000967287417    0.0800
     41 H41        -6.5613    0.6127   51.2041 H       1  ZINC000967287417    0.0900
     42 H42        -6.5572    1.8006   49.8785 H       1  ZINC000967287417    0.0900
     43 H43        -4.8224    2.9194   52.0912 H       1  ZINC000967287417    0.1700
     44 H44         0.6858    3.8404   52.8375 H       1  ZINC000967287417    0.0400
     45 H45         0.6286    2.1379   52.3220 H       1  ZINC000967287417    0.0800
     46 H46         2.6777    3.2694   51.4847 H       1  ZINC000967287417    0.0700
     47 H47         1.6256    2.7574   50.1424 H       1  ZINC000967287417    0.0700
     48 H48         2.6032    4.4575   48.6217 H       1  ZINC000967287417    0.0600
     49 H49         2.6811    6.1653   49.1173 H       1  ZINC000967287417    0.0600
     50 H50         3.7134    4.9577   49.9200 H       1  ZINC000967287417    0.0600
@<TRIPOS>BOND
     1     1     2    1
     2     1    28    1
     3     1    29    1
     4     1    30    1
     5     2     3    1
     6     3     4    1
     7     3    31    1
     8     3    32    1
     9     4    27    1
    10     4     5    2
    11     5     6    1
    12     5    33    1
    13     6     7    2
    14     6    34    1
    15     7     8    1
    16     7    27    1
    17     8     9    2
    18     8    10   am
    19    10    11    1
    20    10    35    1
    21    11    12    1
    22    11    24    1
    23    11    13    1
    24    13    14    1
    25    13    36    1
    26    13    37    1
    27    14    15    1
    28    14    22    1
    29    15    16    1
    30    15    38    1
    31    15    39    1
    32    16    21    1
    33    16    17    2
    34    17    18    1
    35    18    19    1
    36    19    20    1
    37    19    21    2
    38    20    40    1
    39    20    41    1
    40    20    42    1
    41    21    43    1
    42    22    23    1
    43    22    44    1
    44    22    45    1
    45    23    24    1
    46    23    46    1
    47    23    47    1
    48    24    25    1
    49    24    26    1
    50    26    48    1
    51    26    49    1
    52    26    50    1
@<TRIPOS>SUBSTRUCTURE
     1 ZINC000967287417        1 TEMP              0 ****  ****    0 ROOT


##########                                Name:    ZINC000599228306
##########                DOCK_Rotatable_Bonds:                   8
##########                         Heavy_Atoms:                  25
##########                    Molecular_Weight:             379.382
##########                DOCK_Rotatable_Bonds:                   8
##########                       Formal_Charge:        -4.09782e-08
##########                     HBond_Acceptors:                  10
##########                        HBond_Donors:                   1
##########                         Heavy_Atoms:                  25
##########                          Grid_Score:          -29.356663
##########                     Grid_vdw_energy:          -27.845238
##########                      Grid_es_energy:           -1.511425
##########           Internal_energy_repulsive:           37.222919

@<TRIPOS>MOLECULE
ZINC000599228306
 44 44 1 0 0
SMALL
USER_CHARGES


@<TRIPOS>ATOM
      1 C1         -8.3270    3.7953   58.7766 C.3     1  ZINC000599228306    0.0400
      2 O2         -7.5021    4.0477   57.6086 O.3     1  ZINC000599228306   -0.3500
      3 C3         -7.0772    2.9730   56.9160 C.2     1  ZINC000599228306    0.5100
      4 O4         -7.3602    1.8544   57.2964 O.2     1  ZINC000599228306   -0.4800
      5 C5         -6.2680    3.1545   55.6954 C.ar    1  ZINC000599228306   -0.1500
      6 C6         -4.9649    3.6492   55.7845 C.ar    1  ZINC000599228306   -0.0100
      7 C7         -4.2135    3.8166   54.6381 C.ar    1  ZINC000599228306    0.0700
      8 F8         -2.9528    4.2950   54.7227 F       1  ZINC000599228306   -0.1200
      9 C9         -4.7490    3.4946   53.4007 C.ar    1  ZINC000599228306    0.0100
     10 C10        -6.0380    3.0044   53.3043 C.ar    1  ZINC000599228306   -0.7100
     11 S11        -6.7080    2.5979   51.7261 S.o2    1  ZINC000599228306    2.7000
     12 O12        -7.3624    1.3458   51.8785 O.2     1  ZINC000599228306   -0.9200
     13 O13        -7.3658    3.7666   51.2563 O.2     1  ZINC000599228306   -0.9300
     14 N14        -5.4314    2.3371   50.7041 N.am    1  ZINC000599228306   -1.1000
     15 C15        -4.4611    1.2798   50.9989 C.3     1  ZINC000599228306    0.1600
     16 H16        -4.3346    1.1936   52.0781 H       1  ZINC000599228306    0.1300
     17 C17        -4.9690   -0.0496   50.4371 C.3     1  ZINC000599228306   -0.1700
     18 C18        -3.1378    1.6210   50.3637 C.2     1  ZINC000599228306    0.4700
     19 O19        -3.0827    1.8814   49.1851 O.2     1  ZINC000599228306   -0.4900
     20 O20        -2.0204    1.6356   51.1071 O.3     1  ZINC000599228306   -0.3400
     21 C21        -0.8238    2.1773   50.4882 C.3     1  ZINC000599228306    0.1200
     22 C22         0.3119    2.2062   51.5130 C.3     1  ZINC000599228306   -0.1900
     23 C23        -0.4194    1.2978   49.3035 C.3     1  ZINC000599228306   -0.1400
     24 C24        -1.1031    3.5989   49.9961 C.3     1  ZINC000599228306   -0.1800
     25 C25        -6.8004    2.8265   54.4439 C.ar    1  ZINC000599228306    0.2500
     26 F26        -8.0598    2.3470   54.3482 F       1  ZINC000599228306   -0.0900
     27 H27        -8.5996    4.7431   59.2405 H       1  ZINC000599228306    0.1100
     28 H28        -9.2305    3.2648   58.4755 H       1  ZINC000599228306    0.0700
     29 H29        -7.7702    3.1881   59.4904 H       1  ZINC000599228306    0.0700
     30 H30        -4.5461    3.9006   56.7477 H       1  ZINC000599228306    0.1700
     31 H31        -4.1566    3.6276   52.5076 H       1  ZINC000599228306    0.1800
     32 H32        -5.3261    2.8843   49.9101 H       1  ZINC000599228306    0.4300
     33 H33        -4.2470   -0.8362   50.6566 H       1  ZINC000599228306    0.0900
     34 H34        -5.9260   -0.2963   50.8967 H       1  ZINC000599228306    0.0700
     35 H35        -5.0955    0.0367   49.3579 H       1  ZINC000599228306    0.0800
     36 H36         0.5109    1.1935   51.8636 H       1  ZINC000599228306    0.0600
     37 H37         1.2102    2.6130   51.0485 H       1  ZINC000599228306    0.0700
     38 H38         0.0239    2.8329   52.3571 H       1  ZINC000599228306    0.0800
     39 H39        -1.2285    1.2771   48.5734 H       1  ZINC000599228306    0.0700
     40 H40         0.4789    1.7045   48.8389 H       1  ZINC000599228306    0.0800
     41 H41        -0.2204    0.2850   49.6540 H       1  ZINC000599228306    0.0700
     42 H42        -1.3911    4.2255   50.8402 H       1  ZINC000599228306    0.0800
     43 H43        -0.2048    4.0056   49.5316 H       1  ZINC000599228306    0.0700
     44 H44        -1.9122    3.5783   49.2661 H       1  ZINC000599228306    0.0600
@<TRIPOS>BOND
     1     1     2    1
     2     1    27    1
     3     1    28    1
     4     1    29    1
     5     2     3    1
     6     3     4    2
     7     3     5    1
     8     5    25   ar
     9     5     6   ar
    10     6     7   ar
    11     6    30    1
    12     7     8    1
    13     7     9   ar
    14     9    10   ar
    15     9    31    1
    16    10    11    1
    17    10    25   ar
    18    11    12    2
    19    11    13    2
    20    11    14   am
    21    14    15    1
    22    14    32    1
    23    15    16    1
    24    15    17    1
    25    15    18    1
    26    17    33    1
    27    17    34    1
    28    17    35    1
    29    18    19    2
    30    18    20    1
    31    20    21    1
    32    21    22    1
    33    21    23    1
    34    21    24    1
    35    22    36    1
    36    22    37    1
    37    22    38    1
    38    23    39    1
    39    23    40    1
    40    23    41    1
    41    24    42    1
    42    24    43    1
    43    24    44    1
    44    25    26    1
@<TRIPOS>SUBSTRUCTURE
     1 ZINC000599228306        1 TEMP              0 ****  ****    0 ROOT


##########                                Name:    ZINC001456607258
##########                DOCK_Rotatable_Bonds:                   9
##########                         Heavy_Atoms:                  25
##########                    Molecular_Weight:             339.437
##########                DOCK_Rotatable_Bonds:                   9
##########                       Formal_Charge:          -0.0200009
##########                     HBond_Acceptors:                   5
##########                        HBond_Donors:                   2
##########                         Heavy_Atoms:                  25
##########                          Grid_Score:          -29.299368
##########                     Grid_vdw_energy:          -29.267624
##########                      Grid_es_energy:           -0.031744
##########           Internal_energy_repulsive:           19.466368

@<TRIPOS>MOLECULE
ZINC001456607258
 50 52 1 0 0
SMALL
USER_CHARGES


@<TRIPOS>ATOM
      1 C1         -0.1276    4.9023   48.2284 C.3     1  ZINC001456607258   -0.1600
      2 C2         -0.3667    4.1879   49.5601 C.3     1  ZINC001456607258   -0.1100
      3 C3         -0.9692    2.8064   49.2968 C.3     1  ZINC001456607258   -0.1000
      4 H4         -1.9142    2.9175   48.7652 H       1  ZINC001456607258    0.0900
      5 C5         -1.2140    2.0944   50.6287 C.3     1  ZINC001456607258   -0.0700
      6 C6         -2.6942    1.8906   50.8247 C.ar    1  ZINC001456607258   -0.0800
      7 C7         -3.4292    2.8123   51.5468 C.ar    1  ZINC001456607258   -0.1200
      8 C8         -4.7870    2.6254   51.7265 C.ar    1  ZINC001456607258   -0.1200
      9 C9         -5.4099    1.5170   51.1840 C.ar    1  ZINC001456607258   -0.1200
     10 C10        -4.6752    0.5958   50.4612 C.ar    1  ZINC001456607258   -0.1200
     11 C11        -3.3182    0.7850   50.2777 C.ar    1  ZINC001456607258   -0.1200
     12 C12        -0.0149    1.9933   48.4605 C.2     1  ZINC001456607258    0.5200
     13 O13         1.1351    1.8512   48.8184 O.2     1  ZINC001456607258   -0.5300
     14 N14        -0.4394    1.4242   47.3149 N.am    1  ZINC001456607258   -0.7300
     15 C15         0.4883    0.6338   46.5020 C.3     1  ZINC001456607258    0.1300
     16 C16         1.2794    1.5646   45.5809 C.3     1  ZINC001456607258   -0.1400
     17 C17         1.9092    0.8509   44.3710 C.3     1  ZINC001456607258    0.1100
     18 N18         1.4733    2.0194   43.5819 N.am    1  ZINC001456607258   -0.6500
     19 C19         1.8848    2.5892   42.4319 C.2     1  ZINC001456607258    0.6100
     20 O20         2.8216    2.1138   41.8188 O.2     1  ZINC001456607258   -0.5400
     21 C21         1.2002    3.7874   41.9177 C.2     1  ZINC001456607258   -0.2300
     22 C22         0.1435    4.4398   42.4907 C.2     1  ZINC001456607258    0.0400
     23 N23        -0.1856    5.4849   41.7081 N.pl3   1  ZINC001456607258   -0.5500
     24 C24         0.6366    5.5394   40.6205 C.2     1  ZINC001456607258   -0.0200
     25 C25         1.5180    4.5261   40.6909 C.2     1  ZINC001456607258   -0.1400
     26 C26         0.4060    2.3133   44.5578 C.3     1  ZINC001456607258    0.1100
     27 H27         0.2153    5.9195   48.4182 H       1  ZINC001456607258    0.0600
     28 H28         0.6296    4.3641   47.6582 H       1  ZINC001456607258    0.0600
     29 H29        -1.0572    4.9325   47.6602 H       1  ZINC001456607258    0.0600
     30 H30         0.5805    4.0766   50.0879 H       1  ZINC001456607258    0.0800
     31 H31        -1.0550    4.7745   50.1687 H       1  ZINC001456607258    0.0700
     32 H32        -0.7119    1.1270   50.6212 H       1  ZINC001456607258    0.0800
     33 H33        -0.8199    2.7020   51.4434 H       1  ZINC001456607258    0.0900
     34 H34        -2.9425    3.6782   51.9707 H       1  ZINC001456607258    0.1200
     35 H35        -5.3610    3.3451   52.2913 H       1  ZINC001456607258    0.1200
     36 H36        -6.4706    1.3706   51.3251 H       1  ZINC001456607258    0.1200
     37 H37        -5.1618   -0.2703   50.0376 H       1  ZINC001456607258    0.1200
     38 H38        -2.7441    0.0653   49.7130 H       1  ZINC001456607258    0.1200
     39 H39        -1.3593    1.5379   47.0288 H       1  ZINC001456607258    0.4000
     40 H40         1.1769    0.0973   47.1548 H       1  ZINC001456607258    0.0700
     41 H41        -0.0737   -0.0809   45.9008 H       1  ZINC001456607258    0.0800
     42 H42         1.9721    2.2095   46.1216 H       1  ZINC001456607258    0.1100
     43 H43         2.9920    0.7451   44.4380 H       1  ZINC001456607258    0.0800
     44 H44         1.4061   -0.0765   44.0972 H       1  ZINC001456607258    0.0900
     45 H45        -0.3443    4.1635   43.4139 H       1  ZINC001456607258    0.1700
     46 H46        -0.9048    6.1097   41.8910 H       1  ZINC001456607258    0.4200
     47 H47         0.5905    6.2785   39.8344 H       1  ZINC001456607258    0.1700
     48 H48         2.2994    4.2972   39.9813 H       1  ZINC001456607258    0.1500
     49 H49        -0.5387    1.8155   44.3389 H       1  ZINC001456607258    0.0900
     50 H50         0.2886    3.3752   44.7740 H       1  ZINC001456607258    0.0900
@<TRIPOS>BOND
     1     1     2    1
     2     1    27    1
     3     1    28    1
     4     1    29    1
     5     2     3    1
     6     2    30    1
     7     2    31    1
     8     3     4    1
     9     3     5    1
    10     3    12    1
    11     5     6    1
    12     5    32    1
    13     5    33    1
    14     6    11   ar
    15     6     7   ar
    16     7     8   ar
    17     7    34    1
    18     8     9   ar
    19     8    35    1
    20     9    10   ar
    21     9    36    1
    22    10    11   ar
    23    10    37    1
    24    11    38    1
    25    12    13    2
    26    12    14   am
    27    14    15    1
    28    14    39    1
    29    15    16    1
    30    15    40    1
    31    15    41    1
    32    16    26    1
    33    16    17    1
    34    16    42    1
    35    17    18    1
    36    17    43    1
    37    17    44    1
    38    18    19   am
    39    18    26    1
    40    19    20    2
    41    19    21    1
    42    21    25    1
    43    21    22    2
    44    22    23    1
    45    22    45    1
    46    23    24    1
    47    23    46    1
    48    24    25    2
    49    24    47    1
    50    25    48    1
    51    26    49    1
    52    26    50    1
@<TRIPOS>SUBSTRUCTURE
     1 ZINC001456607258        1 TEMP              0 ****  ****    0 ROOT


##########                                Name:    ZINC000464706598
##########                DOCK_Rotatable_Bonds:                   4
##########                         Heavy_Atoms:                  26
##########                    Molecular_Weight:             412.286
##########                DOCK_Rotatable_Bonds:                   4
##########                       Formal_Charge:           0.0100001
##########                     HBond_Acceptors:                   5
##########                        HBond_Donors:                   0
##########                         Heavy_Atoms:                  26
##########                          Grid_Score:          -29.280588
##########                     Grid_vdw_energy:          -27.710001
##########                      Grid_es_energy:           -1.570586
##########           Internal_energy_repulsive:           58.955330

@<TRIPOS>MOLECULE
ZINC000464706598
 44 47 1 0 0
SMALL
USER_CHARGES


@<TRIPOS>ATOM
      1 O1         -8.1213    0.9107   52.3057 O.2     1  ZINC000464706598   -0.5000
      2 C2         -7.5179    1.7820   51.7092 C.2     1  ZINC000464706598    0.5900
      3 C3         -6.1928    1.4966   51.1298 C.2     1  ZINC000464706598   -0.2800
      4 C4         -4.9829    2.0002   51.5642 C.2     1  ZINC000464706598    0.1300
      5 N5         -4.0263    1.4920   50.7662 N.pl3   1  ZINC000464706598   -0.3100
      6 C6         -2.6525    1.7512   50.8665 C.ar    1  ZINC000464706598    0.1700
      7 C7         -1.7750    1.2238   49.9286 C.ar    1  ZINC000464706598   -0.1300
      8 C8         -0.4218    1.4811   50.0295 C.ar    1  ZINC000464706598   -0.0600
      9 C9          0.0597    2.2632   51.0643 C.ar    1  ZINC000464706598   -0.1000
     10 Br10        1.9131    2.6129   51.1997 Br      1  ZINC000464706598   -0.0400
     11 C11        -0.8127    2.7904   52.0000 C.ar    1  ZINC000464706598   -0.0700
     12 C12        -2.1673    2.5405   51.9007 C.ar    1  ZINC000464706598   -0.1100
     13 N13        -4.6349    0.6604   49.8195 N.2     1  ZINC000464706598   -0.2800
     14 C14        -5.9226    0.6515   50.0297 C.2     1  ZINC000464706598    0.0700
     15 N15        -8.0634    3.0069   51.5728 N.am    1  ZINC000464706598   -0.6100
     16 C16        -7.3552    4.0752   50.8499 C.3     1  ZINC000464706598    0.0400
     17 C17        -7.3380    5.3277   51.7337 C.3     1  ZINC000464706598    0.0500
     18 O18        -8.6710    5.6234   52.1571 O.3     1  ZINC000464706598   -0.3700
     19 C19        -9.2686    4.6048   52.9629 C.3     1  ZINC000464706598    0.0500
     20 C20        -9.3873    3.3137   52.1373 C.3     1  ZINC000464706598    0.1600
     21 H21       -10.1106    3.4565   51.3344 H       1  ZINC000464706598    0.0900
     22 C22        -9.8331    2.1817   53.0265 C.ar    1  ZINC000464706598   -0.0500
     23 C23       -10.7832    1.2833   52.5779 C.ar    1  ZINC000464706598   -0.1000
     24 C24       -11.1922    0.2450   53.3935 C.ar    1  ZINC000464706598   -0.1100
     25 C25       -10.6509    0.1047   54.6577 C.ar    1  ZINC000464706598   -0.1200
     26 C26        -9.7001    1.0025   55.1060 C.ar    1  ZINC000464706598   -0.1100
     27 C27        -9.2880    2.0383   54.2887 C.ar    1  ZINC000464706598   -0.1000
     28 H28        -4.8321    2.6777   52.3916 H       1  ZINC000464706598    0.1900
     29 H29        -2.1502    0.6126   49.1211 H       1  ZINC000464706598    0.1400
     30 H30         0.2612    1.0710   49.3003 H       1  ZINC000464706598    0.1500
     31 H31        -0.4344    3.4009   52.8066 H       1  ZINC000464706598    0.1500
     32 H32        -2.8480    2.9525   52.6311 H       1  ZINC000464706598    0.1500
     33 H33        -6.6547    0.1000   49.4587 H       1  ZINC000464706598    0.2100
     34 H34        -6.3331    3.7607   50.6390 H       1  ZINC000464706598    0.1200
     35 H35        -7.8733    4.2921   49.9158 H       1  ZINC000464706598    0.0800
     36 H36        -6.7100    5.1489   52.6064 H       1  ZINC000464706598    0.0600
     37 H37        -6.9416    6.1689   51.1652 H       1  ZINC000464706598    0.1100
     38 H38        -8.6476    4.4233   53.8401 H       1  ZINC000464706598    0.0600
     39 H39       -10.2612    4.9260   53.2787 H       1  ZINC000464706598    0.1100
     40 H40       -11.2062    1.3929   51.5902 H       1  ZINC000464706598    0.1100
     41 H41       -11.9350   -0.4565   53.0433 H       1  ZINC000464706598    0.1200
     42 H42       -10.9709   -0.7062   55.2952 H       1  ZINC000464706598    0.1200
     43 H43        -9.2774    0.8931   56.0938 H       1  ZINC000464706598    0.1200
     44 H44        -8.5452    2.7398   54.6390 H       1  ZINC000464706598    0.1100
@<TRIPOS>BOND
     1     1     2    2
     2     2     3    1
     3     2    15   am
     4     3    14    1
     5     3     4    2
     6     4     5    1
     7     4    28    1
     8     5     6    1
     9     5    13    1
    10     6    12   ar
    11     6     7   ar
    12     7     8   ar
    13     7    29    1
    14     8     9   ar
    15     8    30    1
    16     9    10    1
    17     9    11   ar
    18    11    12   ar
    19    11    31    1
    20    12    32    1
    21    13    14    2
    22    14    33    1
    23    15    20    1
    24    15    16    1
    25    16    17    1
    26    16    34    1
    27    16    35    1
    28    17    18    1
    29    17    36    1
    30    17    37    1
    31    18    19    1
    32    19    20    1
    33    19    38    1
    34    19    39    1
    35    20    21    1
    36    20    22    1
    37    22    27   ar
    38    22    23   ar
    39    23    24   ar
    40    23    40    1
    41    24    25   ar
    42    24    41    1
    43    25    26   ar
    44    25    42    1
    45    26    27   ar
    46    26    43    1
    47    27    44    1
@<TRIPOS>SUBSTRUCTURE
     1 ZINC000464706598        1 TEMP              0 ****  ****    0 ROOT


##########                                Name:    ZINC000364058410
##########                DOCK_Rotatable_Bonds:                   5
##########                         Heavy_Atoms:                  25
##########                    Molecular_Weight:             358.464
##########                DOCK_Rotatable_Bonds:                   5
##########                       Formal_Charge:           0.0100002
##########                     HBond_Acceptors:                   7
##########                        HBond_Donors:                   0
##########                         Heavy_Atoms:                  25
##########                          Grid_Score:          -29.274364
##########                     Grid_vdw_energy:          -28.045477
##########                      Grid_es_energy:           -1.228887
##########           Internal_energy_repulsive:           68.121674

@<TRIPOS>MOLECULE
ZINC000364058410
 47 50 1 0 0
SMALL
USER_CHARGES


@<TRIPOS>ATOM
      1 C1         -9.2090   -0.3891   64.9672 C.3     1  ZINC000364058410   -0.0700
      2 C2         -9.3702   -0.3072   63.4711 C.2     1  ZINC000364058410   -0.2500
      3 C3         -8.3760   -0.3935   62.5574 C.2     1  ZINC000364058410    0.0800
      4 N4         -8.9309   -0.2737   61.3331 N.pl3   1  ZINC000364058410   -0.3600
      5 C5         -8.2155   -0.3106   60.0552 C.3     1  ZINC000364058410    0.1300
      6 C6         -8.3318   -1.6573   59.3184 C.3     1  ZINC000364058410    0.1100
      7 N7         -9.5215   -1.0814   58.6620 N.am    1  ZINC000364058410   -0.6500
      8 C8        -10.6282   -1.5972   58.0915 C.2     1  ZINC000364058410    0.5600
      9 O9        -10.7872   -2.7990   58.0543 O.2     1  ZINC000364058410   -0.5000
     10 C10       -11.6680   -0.6808   57.4999 C.3     1  ZINC000364058410    0.1400
     11 H11       -11.2458    0.3158   57.3706 H       1  ZINC000364058410    0.0900
     12 C12       -12.1209   -1.2268   56.1420 C.3     1  ZINC000364058410   -0.1200
     13 C13       -13.2733   -0.3709   55.6112 C.3     1  ZINC000364058410   -0.1200
     14 C14       -14.4552   -0.4458   56.5806 C.3     1  ZINC000364058410   -0.1400
     15 C15       -14.0287    0.1090   57.9434 C.3     1  ZINC000364058410    0.1000
     16 N16       -12.8301   -0.6108   58.3961 N.am    1  ZINC000364058410   -0.6000
     17 C17       -12.7997   -1.1997   59.6081 C.2     1  ZINC000364058410    0.5900
     18 O18       -11.8010   -1.7929   59.9714 O.2     1  ZINC000364058410   -0.4900
     19 C19       -13.9693   -1.1258   60.4885 C.2     1  ZINC000364058410   -0.2600
     20 C20       -15.0570   -1.9510   60.4325 C.2     1  ZINC000364058410   -0.0600
     21 C21       -16.0109   -1.6581   61.3782 C.2     1  ZINC000364058410   -0.1400
     22 C22       -15.7166   -0.6292   62.1816 C.2     1  ZINC000364058410   -0.2400
     23 S23       -14.1940    0.0341   61.7908 S.3     1  ZINC000364058410    0.2100
     24 C24        -9.0125    0.2865   58.8811 C.3     1  ZINC000364058410    0.0900
     25 N25       -10.3119   -0.1083   61.5000 N.2     1  ZINC000364058410   -0.3000
     26 C26       -10.5748   -0.1345   62.7815 C.2     1  ZINC000364058410    0.0500
     27 H27        -9.2922   -1.4283   65.2853 H       1  ZINC000364058410    0.0600
     28 H28        -8.2306   -0.0001   65.2491 H       1  ZINC000364058410    0.0600
     29 H29        -9.9877    0.2020   65.4495 H       1  ZINC000364058410    0.0600
     30 H30        -7.3263   -0.5332   62.7698 H       1  ZINC000364058410    0.1700
     31 H31        -7.1948    0.0647   60.1286 H       1  ZINC000364058410    0.1300
     32 H32        -7.5064   -1.8569   58.6351 H       1  ZINC000364058410    0.1100
     33 H33        -8.5560   -2.4988   59.9739 H       1  ZINC000364058410    0.0900
     34 H34       -11.2882   -1.1917   55.4397 H       1  ZINC000364058410    0.0800
     35 H35       -12.4565   -2.2573   56.2580 H       1  ZINC000364058410    0.0800
     36 H36       -12.9443    0.6642   55.5191 H       1  ZINC000364058410    0.0700
     37 H37       -13.5811   -0.7423   54.6338 H       1  ZINC000364058410    0.0800
     38 H38       -15.2838    0.1451   56.1904 H       1  ZINC000364058410    0.0800
     39 H39       -14.7688   -1.4837   56.6923 H       1  ZINC000364058410    0.0700
     40 H40       -13.8013    1.1709   57.8506 H       1  ZINC000364058410    0.0800
     41 H41       -14.8343   -0.0327   58.6638 H       1  ZINC000364058410    0.0900
     42 H42       -15.1576   -2.7532   59.7164 H       1  ZINC000364058410    0.1500
     43 H43       -16.9307   -2.2172   61.4659 H       1  ZINC000364058410    0.1500
     44 H44       -16.3557   -0.2694   62.9744 H       1  ZINC000364058410    0.1700
     45 H45        -9.7802    0.9971   59.1877 H       1  ZINC000364058410    0.0900
     46 H46        -8.3872    0.6579   58.0693 H       1  ZINC000364058410    0.1100
     47 H47       -11.5521   -0.0328   63.2297 H       1  ZINC000364058410    0.1800
@<TRIPOS>BOND
     1     1     2    1
     2     1    27    1
     3     1    28    1
     4     1    29    1
     5     2    26    1
     6     2     3    2
     7     3     4    1
     8     3    30    1
     9     4     5    1
    10     4    25    1
    11     5    24    1
    12     5     6    1
    13     5    31    1
    14     6     7    1
    15     6    32    1
    16     6    33    1
    17     7     8   am
    18     7    24    1
    19     8     9    2
    20     8    10    1
    21    10    11    1
    22    10    16    1
    23    10    12    1
    24    12    13    1
    25    12    34    1
    26    12    35    1
    27    13    14    1
    28    13    36    1
    29    13    37    1
    30    14    15    1
    31    14    38    1
    32    14    39    1
    33    15    16    1
    34    15    40    1
    35    15    41    1
    36    16    17   am
    37    17    18    2
    38    17    19    1
    39    19    23    1
    40    19    20    2
    41    20    21    1
    42    20    42    1
    43    21    22    2
    44    21    43    1
    45    22    23    1
    46    22    44    1
    47    24    45    1
    48    24    46    1
    49    25    26    2
    50    26    47    1
@<TRIPOS>SUBSTRUCTURE
     1 ZINC000364058410        1 TEMP              0 ****  ****    0 ROOT


##########                                Name:    ZINC000915315870
##########                DOCK_Rotatable_Bonds:                   4
##########                         Heavy_Atoms:                  24
##########                    Molecular_Weight:             357.381
##########                DOCK_Rotatable_Bonds:                   4
##########                       Formal_Charge:           0.0300002
##########                     HBond_Acceptors:                   9
##########                        HBond_Donors:                   1
##########                         Heavy_Atoms:                  24
##########                          Grid_Score:          -29.257006
##########                     Grid_vdw_energy:          -28.105427
##########                      Grid_es_energy:           -1.151579
##########           Internal_energy_repulsive:           35.712799

@<TRIPOS>MOLECULE
ZINC000915315870
 41 43 1 0 0
SMALL
USER_CHARGES


@<TRIPOS>ATOM
      1 C1         -0.7994    2.3095   57.2189 C.3     1  ZINC000915315870    0.0300
      2 O2         -0.4422    3.2495   56.2036 O.3     1  ZINC000915315870   -0.3200
      3 C3         -1.4591    3.8058   55.4919 C.ar    1  ZINC000915315870    0.0800
      4 C4         -2.7765    3.5006   55.8062 C.ar    1  ZINC000915315870    0.0900
      5 F5         -3.0503    2.6508   56.8202 F       1  ZINC000915315870   -0.1100
      6 C6         -3.8088    4.0682   55.0803 C.ar    1  ZINC000915315870   -0.0500
      7 C7         -3.5294    4.9379   54.0426 C.ar    1  ZINC000915315870   -0.6300
      8 S8         -4.8466    5.6581   53.1202 S.o2    1  ZINC000915315870    2.7000
      9 O9         -5.9991    5.5935   53.9490 O.2     1  ZINC000915315870   -0.9400
     10 O10        -4.3427    6.8733   52.5830 O.2     1  ZINC000915315870   -0.9400
     11 N11        -5.1424    4.6634   51.8297 N.am    1  ZINC000915315870   -1.1100
     12 C12        -5.5399    3.2713   52.0537 C.3     1  ZINC000915315870    0.2400
     13 H13        -5.4249    3.0213   53.1083 H       1  ZINC000915315870    0.0900
     14 C14        -7.0019    3.0763   51.6322 C.3     1  ZINC000915315870   -0.1400
     15 C15        -7.3452    1.5850   51.6344 C.3     1  ZINC000915315870   -0.1100
     16 C16        -6.6495    0.8913   50.4566 C.3     1  ZINC000915315870   -0.0400
     17 C17        -5.1884    1.2695   50.4828 C.2     1  ZINC000915315870    0.0900
     18 N18        -4.1954    0.6938   49.8698 N.2     1  ZINC000915315870   -0.2900
     19 N19        -3.0207    1.3904   50.1917 N.pl3   1  ZINC000915315870   -0.3800
     20 C20        -1.6729    1.0736   49.7130 C.3     1  ZINC000915315870    0.1000
     21 C21        -3.3514    2.4059   51.0209 C.2     1  ZINC000915315870    0.0800
     22 C22        -4.6812    2.3557   51.2167 C.2     1  ZINC000915315870   -0.2500
     23 C23        -2.2186    5.2442   53.7274 C.ar    1  ZINC000915315870   -0.0500
     24 C24        -1.1819    4.6844   54.4532 C.ar    1  ZINC000915315870    0.1000
     25 F25         0.0987    4.9842   54.1447 F       1  ZINC000915315870   -0.1100
     26 H26         0.1029    1.9432   57.7085 H       1  ZINC000915315870    0.1100
     27 H27        -1.4402    2.7954   57.9547 H       1  ZINC000915315870    0.0600
     28 H28        -1.3332    1.4730   56.7681 H       1  ZINC000915315870    0.0500
     29 H29        -4.8338    3.8311   55.3243 H       1  ZINC000915315870    0.1700
     30 H30        -5.0525    5.0025   50.9253 H       1  ZINC000915315870    0.4200
     31 H31        -7.6538    3.5995   52.3316 H       1  ZINC000915315870    0.0900
     32 H32        -7.1473    3.4804   50.6303 H       1  ZINC000915315870    0.0800
     33 H33        -7.0086    1.1369   52.5692 H       1  ZINC000915315870    0.0700
     34 H34        -8.4242    1.4613   51.5418 H       1  ZINC000915315870    0.0800
     35 H35        -6.7514   -0.1895   50.5543 H       1  ZINC000915315870    0.0800
     36 H36        -7.0978    1.2203   49.5191 H       1  ZINC000915315870    0.0900
     37 H37        -1.4818    1.6104   48.7839 H       1  ZINC000915315870    0.0800
     38 H38        -0.9411    1.3735   50.4631 H       1  ZINC000915315870    0.0900
     39 H39        -1.5930    0.0010   49.5360 H       1  ZINC000915315870    0.0900
     40 H40        -2.6708    3.1270   51.4490 H       1  ZINC000915315870    0.1700
     41 H41        -2.0035    5.9242   52.9165 H       1  ZINC000915315870    0.1700
@<TRIPOS>BOND
     1     1     2    1
     2     1    26    1
     3     1    27    1
     4     1    28    1
     5     2     3    1
     6     3    24   ar
     7     3     4   ar
     8     4     5    1
     9     4     6   ar
    10     6     7   ar
    11     6    29    1
    12     7     8    1
    13     7    23   ar
    14     8     9    2
    15     8    10    2
    16     8    11   am
    17    11    12    1
    18    11    30    1
    19    12    13    1
    20    12    22    1
    21    12    14    1
    22    14    15    1
    23    14    31    1
    24    14    32    1
    25    15    16    1
    26    15    33    1
    27    15    34    1
    28    16    17    1
    29    16    35    1
    30    16    36    1
    31    17    22    1
    32    17    18    2
    33    18    19    1
    34    19    20    1
    35    19    21    1
    36    20    37    1
    37    20    38    1
    38    20    39    1
    39    21    22    2
    40    21    40    1
    41    23    24   ar
    42    23    41    1
    43    24    25    1
@<TRIPOS>SUBSTRUCTURE
     1 ZINC000915315870        1 TEMP              0 ****  ****    0 ROOT


##########                                Name:    ZINC000543020509
##########                DOCK_Rotatable_Bonds:                   5
##########                         Heavy_Atoms:                  26
##########                    Molecular_Weight:              366.81
##########                DOCK_Rotatable_Bonds:                   5
##########                       Formal_Charge:               -0.02
##########                     HBond_Acceptors:                   8
##########                        HBond_Donors:                   1
##########                         Heavy_Atoms:                  26
##########                          Grid_Score:          -29.235985
##########                     Grid_vdw_energy:          -28.016611
##########                      Grid_es_energy:           -1.219374
##########           Internal_energy_repulsive:           13.142725

@<TRIPOS>MOLECULE
ZINC000543020509
 41 43 1 0 0
SMALL
USER_CHARGES


@<TRIPOS>ATOM
      1 C1          3.9865    1.2778   48.4828 C.3     1  ZINC000543020509    0.0800
      2 N2          2.5461    1.1126   48.2726 N.pl3   1  ZINC000543020509   -0.6200
      3 C3          2.0422    0.6656   46.9717 C.3     1  ZINC000543020509    0.0900
      4 C4          1.6563    1.3804   49.3090 C.ar    1  ZINC000543020509    0.2500
      5 C5          2.1200    1.6951   50.5852 C.ar    1  ZINC000543020509   -0.2200
      6 C6          1.2074    1.9557   51.5907 C.ar    1  ZINC000543020509    0.1400
      7 N7         -0.0876    1.9108   51.3592 N.ar    1  ZINC000543020509   -0.5000
      8 C8         -0.5749    1.6153   50.1589 C.ar    1  ZINC000543020509    0.1100
      9 C9         -2.0411    1.5785   49.9510 C.2     1  ZINC000543020509    0.5900
     10 O10        -2.4927    1.4004   48.8368 O.2     1  ZINC000543020509   -0.5000
     11 N11        -2.8745    1.7425   50.9975 N.am    1  ZINC000543020509   -0.6200
     12 C12        -4.2598    1.7060   50.8014 C.2     1  ZINC000543020509    0.3200
     13 N13        -5.0689    2.7389   50.8325 N.2     1  ZINC000543020509   -0.3100
     14 N14        -6.3709    2.2828   50.5891 N.pl3   1  ZINC000543020509   -0.3300
     15 C15        -7.5224    3.0722   50.5386 C.ar    1  ZINC000543020509    0.2200
     16 C16        -7.8807    3.7066   49.3584 C.ar    1  ZINC000543020509   -0.1300
     17 C17        -9.0196    4.4868   49.3096 C.ar    1  ZINC000543020509   -0.0500
     18 C18        -9.8115    4.6423   50.4360 C.ar    1  ZINC000543020509   -0.0600
     19 Cl19      -11.2398    5.6261   50.3593 Cl      1  ZINC000543020509   -0.0500
     20 C20        -9.4701    4.0179   51.6185 C.ar    1  ZINC000543020509   -0.0400
     21 C21        -8.3244    3.2220   51.6799 C.ar    1  ZINC000543020509   -0.0200
     22 C22        -7.9643    2.5714   52.9036 C.1     1  ZINC000543020509    0.2500
     23 N23        -7.6786    2.0552   53.8744 N.1     1  ZINC000543020509   -0.3800
     24 C24        -6.3158    0.9370   50.4102 C.2     1  ZINC000543020509    0.0700
     25 C25        -5.0237    0.5579   50.5311 C.2     1  ZINC000543020509   -0.2400
     26 C26         0.2784    1.3461   49.0949 C.ar    1  ZINC000543020509   -0.1800
     27 H27         4.2769    2.2963   48.2250 H       1  ZINC000543020509    0.0600
     28 H28         4.2255    1.0856   49.5288 H       1  ZINC000543020509    0.0700
     29 H29         4.5289    0.5744   47.8510 H       1  ZINC000543020509    0.0700
     30 H30         2.8799    0.5075   46.2923 H       1  ZINC000543020509    0.0800
     31 H31         1.4939   -0.2682   47.0957 H       1  ZINC000543020509    0.0600
     32 H32         1.3780    1.4249   46.5588 H       1  ZINC000543020509    0.0600
     33 H33         3.1803    1.7345   50.7865 H       1  ZINC000543020509    0.1400
     34 H34         1.5625    2.1996   52.5810 H       1  ZINC000543020509    0.1700
     35 H35        -2.5142    1.8857   51.8866 H       1  ZINC000543020509    0.4300
     36 H36        -7.2684    3.5905   48.4764 H       1  ZINC000543020509    0.1500
     37 H37        -9.2940    4.9790   48.3883 H       1  ZINC000543020509    0.1500
     38 H38       -10.0901    4.1417   52.4941 H       1  ZINC000543020509    0.1500
     39 H39        -7.1535    0.2871   50.2042 H       1  ZINC000543020509    0.1900
     40 H40        -4.6463   -0.4501   50.4423 H       1  ZINC000543020509    0.1800
     41 H41        -0.1194    1.1066   48.1198 H       1  ZINC000543020509    0.1500
@<TRIPOS>BOND
     1     1     2    1
     2     1    27    1
     3     1    28    1
     4     1    29    1
     5     2     3    1
     6     2     4    1
     7     3    30    1
     8     3    31    1
     9     3    32    1
    10     4    26   ar
    11     4     5   ar
    12     5     6   ar
    13     5    33    1
    14     6     7   ar
    15     6    34    1
    16     7     8   ar
    17     8     9    1
    18     8    26   ar
    19     9    10    2
    20     9    11   am
    21    11    12    1
    22    11    35    1
    23    12    25    1
    24    12    13    2
    25    13    14    1
    26    14    15    1
    27    14    24    1
    28    15    21   ar
    29    15    16   ar
    30    16    17   ar
    31    16    36    1
    32    17    18   ar
    33    17    37    1
    34    18    19    1
    35    18    20   ar
    36    20    21   ar
    37    20    38    1
    38    21    22    1
    39    22    23    3
    40    24    25    2
    41    24    39    1
    42    25    40    1
    43    26    41    1
@<TRIPOS>SUBSTRUCTURE
     1 ZINC000543020509        1 TEMP              0 ****  ****    0 ROOT


##########                                Name:    ZINC000541568816
##########                DOCK_Rotatable_Bonds:                   8
##########                         Heavy_Atoms:                  25
##########                    Molecular_Weight:             411.339
##########                DOCK_Rotatable_Bonds:                   8
##########                       Formal_Charge:          -0.0100007
##########                     HBond_Acceptors:                   5
##########                        HBond_Donors:                   1
##########                         Heavy_Atoms:                  25
##########                          Grid_Score:          -29.232718
##########                     Grid_vdw_energy:          -28.622440
##########                      Grid_es_energy:           -0.610277
##########           Internal_energy_repulsive:           18.657103

@<TRIPOS>MOLECULE
ZINC000541568816
 52 54 1 0 0
SMALL
USER_CHARGES


@<TRIPOS>ATOM
      1 C1         -5.1393    1.0813   50.2547 C.3     1  ZINC000541568816   -0.1500
      2 C2         -3.7193    1.3480   50.7583 C.3     1  ZINC000541568816    0.0600
      3 O3         -2.7945    1.1920   49.6802 O.3     1  ZINC000541568816   -0.3700
      4 C4         -1.4238    1.2954   50.0708 C.3     1  ZINC000541568816    0.0700
      5 H5         -1.1075    0.4838   50.7259 H       1  ZINC000541568816    0.0900
      6 C6         -1.0324    2.6919   50.5855 C.3     1  ZINC000541568816   -0.1700
      7 C7          0.2860    2.5250   49.8096 C.3     1  ZINC000541568816    0.1500
      8 H8          0.6124    3.4327   49.3020 H       1  ZINC000541568816    0.1100
      9 N9          1.3525    1.8953   50.5921 N.am    1  ZINC000541568816   -0.7200
     10 C10         2.2540    2.6595   51.2400 C.2     1  ZINC000541568816    0.7100
     11 O11         2.1812    3.8715   51.1763 O.2     1  ZINC000541568816   -0.5800
     12 N12         3.2361    2.0802   51.9585 N.am    1  ZINC000541568816   -0.6300
     13 C13         3.3227    0.6198   52.0367 C.3     1  ZINC000541568816    0.1000
     14 C14         4.3202    0.1115   50.9938 C.3     1  ZINC000541568816   -0.1800
     15 C15         4.2171    2.9108   52.6614 C.3     1  ZINC000541568816    0.1700
     16 C16         3.7427    3.1661   54.0688 C.ar    1  ZINC000541568816   -0.0700
     17 C17         2.3904    3.2697   54.3342 C.ar    1  ZINC000541568816   -0.1000
     18 C18         1.9551    3.5039   55.6254 C.ar    1  ZINC000541568816   -0.1000
     19 C19         2.8721    3.6339   56.6515 C.ar    1  ZINC000541568816   -0.1200
     20 C20         4.2250    3.5304   56.3870 C.ar    1  ZINC000541568816   -0.0900
     21 C21         4.6606    3.2910   55.0963 C.ar    1  ZINC000541568816   -0.0900
     22 Br22        6.5112    3.1492   54.7337 Br      1  ZINC000541568816   -0.0500
     23 C23        -0.4687    1.5474   48.8998 C.3     1  ZINC000541568816    0.0800
     24 C24        -1.1238    2.1950   47.6675 C.3     1  ZINC000541568816   -0.1200
     25 C25        -0.2374    1.6584   46.5090 C.3     1  ZINC000541568816   -0.1600
     26 C26         0.1280    0.2501   47.0436 C.3     1  ZINC000541568816    0.0500
     27 O27         0.2809    0.4149   48.4643 O.3     1  ZINC000541568816   -0.3600
     28 H28        -5.3826    1.7889   49.4621 H       1  ZINC000541568816    0.0600
     29 H29        -5.2021    0.0649   49.8663 H       1  ZINC000541568816    0.0600
     30 H30        -5.8448    1.2004   51.0771 H       1  ZINC000541568816    0.0700
     31 H31        -3.6565    2.3645   51.1468 H       1  ZINC000541568816    0.0500
     32 H32        -3.4760    0.6405   51.5510 H       1  ZINC000541568816    0.0500
     33 H33        -1.6661    3.4917   50.2021 H       1  ZINC000541568816    0.1000
     34 H34        -0.8998    2.7373   51.6665 H       1  ZINC000541568816    0.0800
     35 H35         1.4098    0.9284   50.6438 H       1  ZINC000541568816    0.4000
     36 H36         3.6578    0.3285   53.0321 H       1  ZINC000541568816    0.0900
     37 H37         2.3415    0.1868   51.8423 H       1  ZINC000541568816    0.0700
     38 H38         5.3014    0.5446   51.1881 H       1  ZINC000541568816    0.0600
     39 H39         4.3847   -0.9750   51.0519 H       1  ZINC000541568816    0.0700
     40 H40         3.9852    0.4029   49.9983 H       1  ZINC000541568816    0.0600
     41 H41         5.1767    2.3947   52.6893 H       1  ZINC000541568816    0.1000
     42 H42         4.3304    3.8604   52.1383 H       1  ZINC000541568816    0.1100
     43 H43         1.6736    3.1682   53.5328 H       1  ZINC000541568816    0.1300
     44 H44         0.8982    3.5856   55.8324 H       1  ZINC000541568816    0.1300
     45 H45         2.5316    3.8168   57.6600 H       1  ZINC000541568816    0.1300
     46 H46         4.9415    3.6323   57.1886 H       1  ZINC000541568816    0.1300
     47 H47        -2.1553    1.8614   47.5548 H       1  ZINC000541568816    0.1000
     48 H48        -1.0720    3.2822   47.7256 H       1  ZINC000541568816    0.0900
     49 H49        -0.8037    1.5910   45.5801 H       1  ZINC000541568816    0.0900
     50 H50         0.6538    2.2725   46.3797 H       1  ZINC000541568816    0.0800
     51 H51        -0.6744   -0.4558   46.8290 H       1  ZINC000541568816    0.0600
     52 H52         1.0628   -0.0922   46.5998 H       1  ZINC000541568816    0.0900
@<TRIPOS>BOND
     1     1     2    1
     2     1    28    1
     3     1    29    1
     4     1    30    1
     5     2     3    1
     6     2    31    1
     7     2    32    1
     8     3     4    1
     9     4     5    1
    10     4    23    1
    11     4     6    1
    12     6     7    1
    13     6    33    1
    14     6    34    1
    15     7     8    1
    16     7     9    1
    17     7    23    1
    18     9    10   am
    19     9    35    1
    20    10    11    2
    21    10    12   am
    22    12    13    1
    23    12    15    1
    24    13    14    1
    25    13    36    1
    26    13    37    1
    27    14    38    1
    28    14    39    1
    29    14    40    1
    30    15    16    1
    31    15    41    1
    32    15    42    1
    33    16    21   ar
    34    16    17   ar
    35    17    18   ar
    36    17    43    1
    37    18    19   ar
    38    18    44    1
    39    19    20   ar
    40    19    45    1
    41    20    21   ar
    42    20    46    1
    43    21    22    1
    44    23    27    1
    45    23    24    1
    46    24    25    1
    47    24    47    1
    48    24    48    1
    49    25    26    1
    50    25    49    1
    51    25    50    1
    52    26    27    1
    53    26    51    1
    54    26    52    1
@<TRIPOS>SUBSTRUCTURE
     1 ZINC000541568816        1 TEMP              0 ****  ****    0 ROOT


##########                                Name:    ZINC000435292384
##########                DOCK_Rotatable_Bonds:                   6
##########                         Heavy_Atoms:                  22
##########                    Molecular_Weight:             326.503
##########                DOCK_Rotatable_Bonds:                   6
##########                       Formal_Charge:         -0.00999993
##########                     HBond_Acceptors:                   5
##########                        HBond_Donors:                   0
##########                         Heavy_Atoms:                  22
##########                          Grid_Score:          -29.229868
##########                     Grid_vdw_energy:          -28.114109
##########                      Grid_es_energy:           -1.115760
##########           Internal_energy_repulsive:           22.571747

@<TRIPOS>MOLECULE
ZINC000435292384
 52 53 1 0 0
SMALL
USER_CHARGES


@<TRIPOS>ATOM
      1 C1         -8.6792    4.9439   50.4123 C.3     1  ZINC000435292384   -0.1500
      2 C2         -8.1153    3.6825   51.0693 C.3     1  ZINC000435292384   -0.1200
      3 C3         -7.2674    4.0741   52.2812 C.3     1  ZINC000435292384   -0.1400
      4 C4         -6.7025    2.8126   52.9374 C.3     1  ZINC000435292384    0.1600
      5 H5         -7.5208    2.1423   53.2003 H       1  ZINC000435292384    0.0900
      6 C6         -5.9318    3.1971   54.2019 C.3     1  ZINC000435292384   -0.1700
      7 N7         -5.7998    2.1378   52.0015 N.am    1  ZINC000435292384   -0.6100
      8 C8         -4.4683    2.6330   51.6325 C.3     1  ZINC000435292384    0.1200
      9 C9         -3.7397    1.4254   51.0021 C.3     1  ZINC000435292384   -0.1300
     10 H10        -3.1642    0.8824   51.7517 H       1  ZINC000435292384    0.1100
     11 C11        -2.8572    1.8634   49.8617 C.2     1  ZINC000435292384    0.5200
     12 O12        -3.1346    1.5470   48.7243 O.2     1  ZINC000435292384   -0.5200
     13 N13        -1.7597    2.6065   50.1059 N.am    1  ZINC000435292384   -0.6000
     14 C14        -1.4504    2.9743   51.5016 C.3     1  ZINC000435292384    0.1000
     15 C15         0.0503    2.8409   51.8178 C.3     1  ZINC000435292384   -0.1300
     16 C16         0.6068    1.5943   51.1752 C.3     1  ZINC000435292384   -0.1100
     17 C17         1.1525    1.9386   49.7927 C.3     1  ZINC000435292384   -0.1200
     18 C18         0.1429    1.9294   48.7231 C.3     1  ZINC000435292384   -0.0700
     19 H19        -0.3321    0.9490   48.6838 H       1  ZINC000435292384    0.0900
     20 S20         0.9485    2.2702   47.1339 S.3     1  ZINC000435292384   -0.2500
     21 C21         0.2552    0.9971   46.0436 C.3     1  ZINC000435292384   -0.1200
     22 C22        -0.9307    3.0055   48.9907 C.3     1  ZINC000435292384    0.1400
     23 C23        -4.9248    0.5740   50.4905 C.3     1  ZINC000435292384   -0.1400
     24 C24        -6.0821    0.9826   51.3749 C.2     1  ZINC000435292384    0.5200
     25 O25        -7.1171    0.3620   51.4953 O.2     1  ZINC000435292384   -0.5200
     26 H26        -9.2832    4.6650   49.5489 H       1  ZINC000435292384    0.0500
     27 H27        -9.2983    5.4818   51.1303 H       1  ZINC000435292384    0.0500
     28 H28        -7.8578    5.5837   50.0896 H       1  ZINC000435292384    0.0500
     29 H29        -8.9367    3.0427   51.3919 H       1  ZINC000435292384    0.0600
     30 H30        -7.4962    3.1446   50.3512 H       1  ZINC000435292384    0.0600
     31 H31        -6.4466    4.7146   51.9587 H       1  ZINC000435292384    0.0800
     32 H32        -7.8867    4.6111   52.9996 H       1  ZINC000435292384    0.0800
     33 H33        -5.1135    3.8675   53.9389 H       1  ZINC000435292384    0.0700
     34 H34        -6.6034    3.6993   54.8982 H       1  ZINC000435292384    0.0700
     35 H35        -5.5292    2.2985   54.6694 H       1  ZINC000435292384    0.0600
     36 H36        -4.5546    3.4421   50.9072 H       1  ZINC000435292384    0.0900
     37 H37        -3.9342    2.9752   52.5188 H       1  ZINC000435292384    0.0800
     38 H38        -1.7577    4.0061   51.6721 H       1  ZINC000435292384    0.0700
     39 H39        -2.0124    2.3239   52.1719 H       1  ZINC000435292384    0.0900
     40 H40         0.5797    3.7128   51.4334 H       1  ZINC000435292384    0.0700
     41 H41         0.1885    2.7835   52.8975 H       1  ZINC000435292384    0.0800
     42 H42         1.4099    1.1937   51.7939 H       1  ZINC000435292384    0.0700
     43 H43        -0.1843    0.8506   51.0790 H       1  ZINC000435292384    0.0600
     44 H44         1.6023    2.9306   49.8354 H       1  ZINC000435292384    0.0800
     45 H45         1.9317    1.2197   49.5393 H       1  ZINC000435292384    0.0600
     46 H46         0.5015    0.0101   46.4349 H       1  ZINC000435292384    0.0800
     47 H47        -0.8280    1.1094   45.9966 H       1  ZINC000435292384    0.0800
     48 H48         0.6755    1.1068   45.0438 H       1  ZINC000435292384    0.1000
     49 H49        -1.5527    3.1261   48.1038 H       1  ZINC000435292384    0.0900
     50 H50        -0.4446    3.9529   49.2241 H       1  ZINC000435292384    0.0900
     51 H51        -5.1375    0.8046   49.4465 H       1  ZINC000435292384    0.1100
     52 H52        -4.7119   -0.4881   50.6119 H       1  ZINC000435292384    0.1100
@<TRIPOS>BOND
     1     1     2    1
     2     1    26    1
     3     1    27    1
     4     1    28    1
     5     2     3    1
     6     2    29    1
     7     2    30    1
     8     3     4    1
     9     3    31    1
    10     3    32    1
    11     4     5    1
    12     4     6    1
    13     4     7    1
    14     6    33    1
    15     6    34    1
    16     6    35    1
    17     7    24   am
    18     7     8    1
    19     8     9    1
    20     8    36    1
    21     8    37    1
    22     9    10    1
    23     9    11    1
    24     9    23    1
    25    11    12    2
    26    11    13   am
    27    13    22    1
    28    13    14    1
    29    14    15    1
    30    14    38    1
    31    14    39    1
    32    15    16    1
    33    15    40    1
    34    15    41    1
    35    16    17    1
    36    16    42    1
    37    16    43    1
    38    17    18    1
    39    17    44    1
    40    17    45    1
    41    18    19    1
    42    18    20    1
    43    18    22    1
    44    20    21    1
    45    21    46    1
    46    21    47    1
    47    21    48    1
    48    22    49    1
    49    22    50    1
    50    23    24    1
    51    23    51    1
    52    23    52    1
    53    24    25    2
@<TRIPOS>SUBSTRUCTURE
     1 ZINC000435292384        1 TEMP              0 ****  ****    0 ROOT


##########                                Name:    ZINC000883773972
##########                DOCK_Rotatable_Bonds:                   4
##########                         Heavy_Atoms:                  23
##########                    Molecular_Weight:             343.447
##########                DOCK_Rotatable_Bonds:                   4
##########                       Formal_Charge:                0.01
##########                     HBond_Acceptors:                   8
##########                        HBond_Donors:                   1
##########                         Heavy_Atoms:                  23
##########                          Grid_Score:          -29.216000
##########                     Grid_vdw_energy:          -28.583744
##########                      Grid_es_energy:           -0.632255
##########           Internal_energy_repulsive:           16.378548

@<TRIPOS>MOLECULE
ZINC000883773972
 48 50 1 0 0
SMALL
USER_CHARGES


@<TRIPOS>ATOM
      1 C1        -10.4303    0.9213   52.5273 C.3     1  ZINC000883773972   -0.1700
      2 C2         -9.5739    2.1614   52.5192 C.2     1  ZINC000883773972    0.5300
      3 O3        -10.0216    3.2102   52.9319 O.2     1  ZINC000883773972   -0.5400
      4 N4         -8.3104    2.1047   52.0534 N.am    1  ZINC000883773972   -0.6200
      5 C5         -7.6229    0.9187   51.5166 C.3     1  ZINC000883773972    0.1100
      6 C6         -6.6371    1.4328   50.4543 C.3     1  ZINC000883773972   -0.1100
      7 H7         -7.0054    1.2624   49.4427 H       1  ZINC000883773972    0.1000
      8 C8         -5.2612    0.7839   50.6795 C.3     1  ZINC000883773972    0.1300
      9 N9         -4.2761    1.8772   50.6460 N.am    1  ZINC000883773972   -0.6400
     10 C10        -2.9994    1.7985   50.2212 C.2     1  ZINC000883773972    0.7300
     11 O11        -2.5585    0.7412   49.8136 O.2     1  ZINC000883773972   -0.5800
     12 N12        -2.2115    2.8916   50.2483 N.am    1  ZINC000883773972   -0.7400
     13 C13        -0.8233    2.8056   49.7882 C.3     1  ZINC000883773972    0.1800
     14 H14        -0.3624    3.7919   49.8426 H       1  ZINC000883773972    0.1100
     15 C15        -0.0531    1.8367   50.6806 C.3     1  ZINC000883773972   -0.1500
     16 C16         1.4431    1.9118   50.3905 C.3     1  ZINC000883773972   -0.1000
     17 C17         1.7395    1.3138   49.0132 C.3     1  ZINC000883773972   -0.5600
     18 H18         1.3619    0.2923   48.9703 H       1  ZINC000883773972    0.1400
     19 C19         3.2501    1.3121   48.7702 C.3     1  ZINC000883773972   -0.1400
     20 S20         0.9181    2.3195   47.7427 S.o2    1  ZINC000883773972    2.4200
     21 O21         1.4215    3.6463   47.8172 O.2     1  ZINC000883773972   -0.9200
     22 O22         0.9736    1.6231   46.5053 O.2     1  ZINC000883773972   -0.9300
     23 C23        -0.7979    2.3122   48.3398 C.3     1  ZINC000883773972   -0.6300
     24 C24        -4.9577    3.0736   51.1670 C.3     1  ZINC000883773972    0.1100
     25 C25        -6.4572    2.9403   50.7589 C.3     1  ZINC000883773972   -0.1100
     26 H26        -6.7055    3.5795   49.9116 H       1  ZINC000883773972    0.1000
     27 C27        -7.3505    3.2181   51.9759 C.3     1  ZINC000883773972    0.1100
     28 H28       -11.4119    1.1604   52.9363 H       1  ZINC000883773972    0.0900
     29 H29       -10.5417    0.5500   51.5086 H       1  ZINC000883773972    0.0900
     30 H30        -9.9566    0.1566   53.1430 H       1  ZINC000883773972    0.0900
     31 H31        -7.0819    0.4076   52.3129 H       1  ZINC000883773972    0.0800
     32 H32        -8.3454    0.2420   51.0603 H       1  ZINC000883773972    0.0900
     33 H33        -5.2361    0.2873   51.6496 H       1  ZINC000883773972    0.0700
     34 H34        -5.0513    0.0666   49.8860 H       1  ZINC000883773972    0.0900
     35 H35        -2.5636    3.7354   50.5723 H       1  ZINC000883773972    0.4000
     36 H36        -0.2297    2.0928   51.7252 H       1  ZINC000883773972    0.0900
     37 H37        -0.4044    0.8216   50.4959 H       1  ZINC000883773972    0.0800
     38 H38         1.7635    2.9534   50.4091 H       1  ZINC000883773972    0.0900
     39 H39         1.9877    1.3536   51.1520 H       1  ZINC000883773972    0.0900
     40 H40         3.7409    0.7144   49.5382 H       1  ZINC000883773972    0.0800
     41 H41         3.4597    0.8860   47.7890 H       1  ZINC000883773972    0.0700
     42 H42         3.6256    2.3346   48.8101 H       1  ZINC000883773972    0.0800
     43 H43        -1.1970    1.2990   48.2903 H       1  ZINC000883773972    0.1400
     44 H44        -1.4025    2.9745   47.7202 H       1  ZINC000883773972    0.1400
     45 H45        -4.8611    3.1166   52.2518 H       1  ZINC000883773972    0.0800
     46 H46        -4.5338    3.9714   50.7172 H       1  ZINC000883773972    0.0800
     47 H47        -7.8640    4.1717   51.8532 H       1  ZINC000883773972    0.0900
     48 H48        -6.7502    3.2302   52.8857 H       1  ZINC000883773972    0.0700
@<TRIPOS>BOND
     1     1     2    1
     2     1    28    1
     3     1    29    1
     4     1    30    1
     5     2     3    2
     6     2     4   am
     7     4    27    1
     8     4     5    1
     9     5     6    1
    10     5    31    1
    11     5    32    1
    12     6     7    1
    13     6    25    1
    14     6     8    1
    15     8     9    1
    16     8    33    1
    17     8    34    1
    18     9    10   am
    19     9    24    1
    20    10    11    2
    21    10    12   am
    22    12    13    1
    23    12    35    1
    24    13    14    1
    25    13    23    1
    26    13    15    1
    27    15    16    1
    28    15    36    1
    29    15    37    1
    30    16    17    1
    31    16    38    1
    32    16    39    1
    33    17    18    1
    34    17    19    1
    35    17    20    1
    36    19    40    1
    37    19    41    1
    38    19    42    1
    39    20    21    2
    40    20    22    2
    41    20    23    1
    42    23    43    1
    43    23    44    1
    44    24    25    1
    45    24    45    1
    46    24    46    1
    47    25    26    1
    48    25    27    1
    49    27    47    1
    50    27    48    1
@<TRIPOS>SUBSTRUCTURE
     1 ZINC000883773972        1 TEMP              0 ****  ****    0 ROOT


##########                                Name:    ZINC000455156110
##########                DOCK_Rotatable_Bonds:                   4
##########                         Heavy_Atoms:                  27
##########                    Molecular_Weight:             370.424
##########                DOCK_Rotatable_Bonds:                   4
##########                       Formal_Charge:           0.0100002
##########                     HBond_Acceptors:                   6
##########                        HBond_Donors:                   1
##########                         Heavy_Atoms:                  27
##########                          Grid_Score:          -29.212702
##########                     Grid_vdw_energy:          -29.167398
##########                      Grid_es_energy:           -0.045303
##########           Internal_energy_repulsive:           26.667587

@<TRIPOS>MOLECULE
ZINC000455156110
 50 53 1 0 0
SMALL
USER_CHARGES


@<TRIPOS>ATOM
      1 C1          3.8954    1.3786   47.3071 C.3     1  ZINC000455156110    0.0300
      2 O2          3.6283    1.1634   48.6944 O.3     1  ZINC000455156110   -0.3100
      3 C3          2.3367    1.2912   49.1017 C.ar    1  ZINC000455156110    0.0900
      4 C4          1.3438    1.5762   48.1777 C.ar    1  ZINC000455156110   -0.1600
      5 C5          0.0315    1.7061   48.5904 C.ar    1  ZINC000455156110   -0.0800
      6 C6         -1.0471    2.0165   47.5849 C.3     1  ZINC000455156110   -0.1100
      7 C7         -0.2937    1.5504   49.9308 C.ar    1  ZINC000455156110    0.1500
      8 N8         -1.6248    1.6812   50.3488 N.am    1  ZINC000455156110   -0.6700
      9 C9         -2.0224    2.7966   50.9925 C.2     1  ZINC000455156110    0.7200
     10 O10        -1.2261    3.6893   51.2106 O.2     1  ZINC000455156110   -0.5500
     11 N11        -3.3026    2.9225   51.3946 N.am    1  ZINC000455156110   -0.5600
     12 C12        -3.8535    4.0869   52.0955 C.3     1  ZINC000455156110    0.1000
     13 C13        -5.3309    3.7483   52.3283 C.3     1  ZINC000455156110   -0.0200
     14 C14        -5.6390    3.7228   53.8236 C.3     1  ZINC000455156110   -0.1400
     15 C15        -5.4830    5.1362   54.3934 C.3     1  ZINC000455156110    0.0600
     16 O16        -6.3380    6.0320   53.6800 O.3     1  ZINC000455156110   -0.3800
     17 C17        -6.0440    6.1366   52.2854 C.3     1  ZINC000455156110    0.0600
     18 C18        -6.2246    4.7667   51.6242 C.3     1  ZINC000455156110   -0.1400
     19 C19        -5.5172    2.3779   51.7271 C.ar    1  ZINC000455156110   -0.1300
     20 C20        -6.6308    1.5650   51.6389 C.ar    1  ZINC000455156110   -0.0700
     21 C21        -6.5425    0.3284   51.0269 C.ar    1  ZINC000455156110   -0.1400
     22 C22        -5.3354   -0.0949   50.5021 C.ar    1  ZINC000455156110   -0.0900
     23 C23        -4.2208    0.7120   50.5883 C.ar    1  ZINC000455156110   -0.1300
     24 C24        -4.3028    1.9641   51.1992 C.ar    1  ZINC000455156110    0.1600
     25 C25         0.7003    1.2642   50.8573 C.ar    1  ZINC000455156110   -0.1200
     26 C26         2.0123    1.1301   50.4431 C.ar    1  ZINC000455156110    0.0900
     27 F27         2.9801    0.8513   51.3436 F       1  ZINC000455156110   -0.1300
     28 H28         4.9605    1.2462   47.1173 H       1  ZINC000455156110    0.1000
     29 H29         3.3285    0.6622   46.7126 H       1  ZINC000455156110    0.0600
     30 H30         3.6007    2.3917   47.0333 H       1  ZINC000455156110    0.0600
     31 H31         1.5960    1.6972   47.1345 H       1  ZINC000455156110    0.1400
     32 H32        -1.4547    1.0858   47.1901 H       1  ZINC000455156110    0.0800
     33 H33        -1.8418    2.5850   48.0682 H       1  ZINC000455156110    0.0600
     34 H34        -0.6252    2.6034   46.7689 H       1  ZINC000455156110    0.0800
     35 H35        -2.2600    0.9692   50.1748 H       1  ZINC000455156110    0.4100
     36 H36        -3.3435    4.2318   53.0479 H       1  ZINC000455156110    0.0800
     37 H37        -3.7625    4.9794   51.4766 H       1  ZINC000455156110    0.0900
     38 H38        -6.6613    3.3783   53.9791 H       1  ZINC000455156110    0.0800
     39 H39        -4.9460    3.0486   54.3269 H       1  ZINC000455156110    0.0800
     40 H40        -5.7566    5.1352   55.4485 H       1  ZINC000455156110    0.1000
     41 H41        -4.4474    5.4592   54.2863 H       1  ZINC000455156110    0.0500
     42 H42        -6.7210    6.8554   51.8239 H       1  ZINC000455156110    0.1000
     43 H43        -5.0145    6.4705   52.1549 H       1  ZINC000455156110    0.0500
     44 H44        -5.9457    4.8303   50.5724 H       1  ZINC000455156110    0.0800
     45 H45        -7.2662    4.4565   51.7076 H       1  ZINC000455156110    0.0800
     46 H46        -7.5730    1.8964   52.0496 H       1  ZINC000455156110    0.1300
     47 H47        -7.4142   -0.3055   50.9593 H       1  ZINC000455156110    0.1300
     48 H48        -5.2654   -1.0606   50.0236 H       1  ZINC000455156110    0.1300
     49 H49        -3.2806    0.3755   50.1769 H       1  ZINC000455156110    0.1400
     50 H50         0.4480    1.1429   51.9004 H       1  ZINC000455156110    0.1700
@<TRIPOS>BOND
     1     1     2    1
     2     1    28    1
     3     1    29    1
     4     1    30    1
     5     2     3    1
     6     3    26   ar
     7     3     4   ar
     8     4     5   ar
     9     4    31    1
    10     5     6    1
    11     5     7   ar
    12     6    32    1
    13     6    33    1
    14     6    34    1
    15     7     8    1
    16     7    25   ar
    17     8     9   am
    18     8    35    1
    19     9    10    2
    20     9    11   am
    21    11    24    1
    22    11    12    1
    23    12    13    1
    24    12    36    1
    25    12    37    1
    26    13    18    1
    27    13    14    1
    28    13    19    1
    29    14    15    1
    30    14    38    1
    31    14    39    1
    32    15    16    1
    33    15    40    1
    34    15    41    1
    35    16    17    1
    36    17    18    1
    37    17    42    1
    38    17    43    1
    39    18    44    1
    40    18    45    1
    41    19    24   ar
    42    19    20   ar
    43    20    21   ar
    44    20    46    1
    45    21    22   ar
    46    21    47    1
    47    22    23   ar
    48    22    48    1
    49    23    24   ar
    50    23    49    1
    51    25    26   ar
    52    25    50    1
    53    26    27    1
@<TRIPOS>SUBSTRUCTURE
     1 ZINC000455156110        1 TEMP              0 ****  ****    0 ROOT


##########                                Name:    ZINC001122903793
##########                DOCK_Rotatable_Bonds:                   4
##########                         Heavy_Atoms:                  25
##########                    Molecular_Weight:             399.968
##########                DOCK_Rotatable_Bonds:                   4
##########                       Formal_Charge:           0.0100003
##########                     HBond_Acceptors:                   9
##########                        HBond_Donors:                   0
##########                         Heavy_Atoms:                  25
##########                          Grid_Score:          -29.169258
##########                     Grid_vdw_energy:          -28.276485
##########                      Grid_es_energy:           -0.892772
##########           Internal_energy_repulsive:           23.272549

@<TRIPOS>MOLECULE
ZINC001122903793
 47 50 1 0 0
SMALL
USER_CHARGES


@<TRIPOS>ATOM
      1 C1          1.5008    3.2700   46.1039 C.3     1  ZINC001122903793   -0.1400
      2 C2          1.4271    3.1115   47.6239 C.3     1  ZINC001122903793   -0.0400
      3 H3          1.4170    4.0946   48.0944 H       1  ZINC001122903793    0.1000
      4 S4          2.8672    2.1678   48.2105 S.3     1  ZINC001122903793   -0.2500
      5 C5          2.4357    1.8681   49.9520 C.3     1  ZINC001122903793   -0.0800
      6 C6          1.0255    1.2708   50.0078 C.3     1  ZINC001122903793    0.0700
      7 N7          0.0593    2.2237   49.4569 N.3     1  ZINC001122903793   -0.4800
      8 C8         -1.2312    1.9022   49.8444 C.2     1  ZINC001122903793    0.3700
      9 N9         -1.8541    0.7704   49.6122 N.2     1  ZINC001122903793   -0.2900
     10 N10        -3.0381    0.8062   50.1105 N.2     1  ZINC001122903793   -0.2400
     11 C11        -3.2443    1.9666   50.6931 C.2     1  ZINC001122903793    0.2600
     12 C12        -4.4741    2.3959   51.3790 C.2     1  ZINC001122903793   -0.1600
     13 C13        -5.6499    1.7247   51.4039 C.2     1  ZINC001122903793    0.1600
     14 Cl14       -5.8859    0.2043   50.5999 Cl      1  ZINC001122903793    0.0300
     15 N15        -6.5971    2.3246   52.0898 N.2     1  ZINC001122903793   -0.4600
     16 C16        -6.3027    3.4534   52.6445 C.2     1  ZINC001122903793    0.0300
     17 S17        -4.6770    3.8712   52.3209 S.3     1  ZINC001122903793    0.2200
     18 N18        -2.0900    2.7024   50.5443 N.pl3   1  ZINC001122903793   -0.4600
     19 C19        -1.8379    4.0619   51.0286 C.3     1  ZINC001122903793    0.1100
     20 C20        -1.4351    4.0112   52.5037 C.3     1  ZINC001122903793    0.0700
     21 H21        -2.1881    3.4767   53.0827 H       1  ZINC001122903793    0.0800
     22 C22        -0.0524    3.3298   52.6605 C.3     1  ZINC001122903793   -0.1500
     23 C23         0.4272    3.9420   54.0048 C.3     1  ZINC001122903793   -0.1500
     24 C24        -0.1695    5.3648   53.9484 C.3     1  ZINC001122903793    0.0500
     25 O25        -1.2610    5.3407   53.0190 O.3     1  ZINC001122903793   -0.3700
     26 C26         0.1532    2.3473   48.0006 C.3     1  ZINC001122903793    0.1000
     27 H27         0.1870    1.3535   47.5542 H       1  ZINC001122903793    0.0800
     28 C28        -1.0706    3.0997   47.4743 C.3     1  ZINC001122903793   -0.1500
     29 H29         0.6332    3.8297   45.7544 H       1  ZINC001122903793    0.0800
     30 H30         2.4111    3.8076   45.8384 H       1  ZINC001122903793    0.0700
     31 H31         1.5107    2.2855   45.6360 H       1  ZINC001122903793    0.0700
     32 H32         3.1474    1.1686   50.3905 H       1  ZINC001122903793    0.1200
     33 H33         2.4569    2.8091   50.5016 H       1  ZINC001122903793    0.0900
     34 H34         0.9988    0.3501   49.4250 H       1  ZINC001122903793    0.0700
     35 H35         0.7665    1.0502   51.0433 H       1  ZINC001122903793    0.0900
     36 H36        -6.9860    4.0472   53.2334 H       1  ZINC001122903793    0.2100
     37 H37        -1.0326    4.5111   50.4473 H       1  ZINC001122903793    0.1200
     38 H38        -2.7424    4.6601   50.9191 H       1  ZINC001122903793    0.1000
     39 H39        -0.1542    2.2473   52.7359 H       1  ZINC001122903793    0.0900
     40 H40         0.6155    3.6038   51.8437 H       1  ZINC001122903793    0.0800
     41 H41         0.0235    3.3853   54.8504 H       1  ZINC001122903793    0.0800
     42 H42         1.5158    3.9793   54.0477 H       1  ZINC001122903793    0.0900
     43 H43        -0.5322    5.6530   54.9351 H       1  ZINC001122903793    0.0700
     44 H44         0.5892    6.0708   53.6110 H       1  ZINC001122903793    0.0700
     45 H45        -1.1070    4.0928   47.9222 H       1  ZINC001122903793    0.0600
     46 H46        -1.0018    3.1923   46.3904 H       1  ZINC001122903793    0.0800
     47 H47        -1.9749    2.5501   47.7353 H       1  ZINC001122903793    0.0600
@<TRIPOS>BOND
     1     1     2    1
     2     1    29    1
     3     1    30    1
     4     1    31    1
     5     2     3    1
     6     2    26    1
     7     2     4    1
     8     4     5    1
     9     5     6    1
    10     5    32    1
    11     5    33    1
    12     6     7    1
    13     6    34    1
    14     6    35    1
    15     7     8    1
    16     7    26    1
    17     8    18    1
    18     8     9    2
    19     9    10    1
    20    10    11    2
    21    11    12    1
    22    11    18    1
    23    12    17    1
    24    12    13    2
    25    13    14    1
    26    13    15    1
    27    15    16    2
    28    16    17    1
    29    16    36    1
    30    18    19    1
    31    19    20    1
    32    19    37    1
    33    19    38    1
    34    20    21    1
    35    20    25    1
    36    20    22    1
    37    22    23    1
    38    22    39    1
    39    22    40    1
    40    23    24    1
    41    23    41    1
    42    23    42    1
    43    24    25    1
    44    24    43    1
    45    24    44    1
    46    26    27    1
    47    26    28    1
    48    28    45    1
    49    28    46    1
    50    28    47    1
@<TRIPOS>SUBSTRUCTURE
     1 ZINC001122903793        1 TEMP              0 ****  ****    0 ROOT


##########                                Name:    ZINC000080099940
##########                DOCK_Rotatable_Bonds:                   4
##########                         Heavy_Atoms:                  26
##########                    Molecular_Weight:             343.388
##########                DOCK_Rotatable_Bonds:                   4
##########                       Formal_Charge:        -3.42727e-07
##########                     HBond_Acceptors:                   6
##########                        HBond_Donors:                   1
##########                         Heavy_Atoms:                  26
##########                          Grid_Score:          -29.145950
##########                     Grid_vdw_energy:          -28.402700
##########                      Grid_es_energy:           -0.743250
##########           Internal_energy_repulsive:            4.657145

@<TRIPOS>MOLECULE
ZINC000080099940
 43 46 1 0 0
SMALL
USER_CHARGES


@<TRIPOS>ATOM
      1 C1          2.1434    0.7919   48.0508 C.3     1  ZINC000080099940   -0.1100
      2 C2          1.0286    1.1987   48.9797 C.2     1  ZINC000080099940   -0.0700
      3 C3         -0.2425    0.7734   48.7489 C.2     1  ZINC000080099940   -0.0900
      4 C4         -1.2726    1.1643   49.6288 C.2     1  ZINC000080099940    0.2300
      5 N5         -2.5717    0.9049   49.6465 N.2     1  ZINC000080099940   -0.4800
      6 C6         -3.1279    1.5175   50.7036 C.2     1  ZINC000080099940    0.1000
      7 C7         -4.5632    1.4742   51.0771 C.ar    1  ZINC000080099940   -0.0200
      8 C8         -5.3954    0.4945   50.5380 C.ar    1  ZINC000080099940   -0.0800
      9 C9         -6.7287    0.4558   50.8867 C.ar    1  ZINC000080099940   -0.1200
     10 C10        -7.2433    1.3931   51.7749 C.ar    1  ZINC000080099940    0.1500
     11 N11        -8.5953    1.3522   52.1266 N.am    1  ZINC000080099940   -0.6500
     12 C12        -9.3992    2.3940   51.8351 C.2     1  ZINC000080099940    0.5700
     13 O13        -8.9485    3.3687   51.2667 O.2     1  ZINC000080099940   -0.5000
     14 C14       -10.8347    2.3506   52.2086 C.ar    1  ZINC000080099940    0.1300
     15 C15       -11.6514    3.4657   52.0173 C.ar    1  ZINC000080099940   -0.1700
     16 C16       -12.9870    3.3726   52.3830 C.ar    1  ZINC000080099940    0.1600
     17 N17       -13.4367    2.2403   52.8956 N.ar    1  ZINC000080099940   -0.5000
     18 C18       -12.6372    1.2045   53.0631 C.ar    1  ZINC000080099940    0.3200
     19 C19       -13.1977   -0.0646   53.6516 C.3     1  ZINC000080099940   -0.0900
     20 N20       -11.3662    1.2454   52.7265 N.ar    1  ZINC000080099940   -0.5000
     21 C21        -6.4152    2.3706   52.3139 C.ar    1  ZINC000080099940   -0.1400
     22 C22        -5.0801    2.4096   51.9720 C.ar    1  ZINC000080099940   -0.0700
     23 C23        -2.1484    2.1852   51.3752 C.2     1  ZINC000080099940   -0.0900
     24 N24        -0.9789    1.9656   50.7022 N.pl3   1  ZINC000080099940   -0.3600
     25 C25         0.3017    2.3851   50.9217 C.2     1  ZINC000080099940    0.0600
     26 C26         1.2986    2.0142   50.0912 C.2     1  ZINC000080099940   -0.1400
     27 H27         3.0821    1.2227   48.3993 H       1  ZINC000080099940    0.0700
     28 H28         2.2257   -0.2949   48.0360 H       1  ZINC000080099940    0.0800
     29 H29         1.9287    1.1538   47.0452 H       1  ZINC000080099940    0.0800
     30 H30        -0.4608    0.1428   47.8996 H       1  ZINC000080099940    0.1500
     31 H31        -4.9961   -0.2335   49.8474 H       1  ZINC000080099940    0.1300
     32 H32        -7.3738   -0.3032   50.4693 H       1  ZINC000080099940    0.1400
     33 H33        -8.9551    0.5741   52.5803 H       1  ZINC000080099940    0.4200
     34 H34       -11.2544    4.3775   51.5962 H       1  ZINC000080099940    0.1600
     35 H35       -13.6503    4.2146   52.2505 H       1  ZINC000080099940    0.1800
     36 H36       -13.5677   -0.7043   52.8504 H       1  ZINC000080099940    0.0900
     37 H37       -12.4146   -0.5869   54.2014 H       1  ZINC000080099940    0.0900
     38 H38       -14.0161    0.1795   54.3290 H       1  ZINC000080099940    0.0900
     39 H39        -6.8170    3.0978   53.0038 H       1  ZINC000080099940    0.1300
     40 H40        -4.4369    3.1691   52.3914 H       1  ZINC000080099940    0.1400
     41 H41        -2.2726    2.7767   52.2702 H       1  ZINC000080099940    0.1900
     42 H42         0.5196    3.0159   51.7707 H       1  ZINC000080099940    0.1700
     43 H43         2.3071    2.3530   50.2770 H       1  ZINC000080099940    0.1500
@<TRIPOS>BOND
     1     1     2    1
     2     1    27    1
     3     1    28    1
     4     1    29    1
     5     2    26    1
     6     2     3    2
     7     3     4    1
     8     3    30    1
     9     4    24    1
    10     4     5    2
    11     5     6    1
    12     6     7    1
    13     6    23    2
    14     7    22   ar
    15     7     8   ar
    16     8     9   ar
    17     8    31    1
    18     9    10   ar
    19     9    32    1
    20    10    11    1
    21    10    21   ar
    22    11    12   am
    23    11    33    1
    24    12    13    2
    25    12    14    1
    26    14    20   ar
    27    14    15   ar
    28    15    16   ar
    29    15    34    1
    30    16    17   ar
    31    16    35    1
    32    17    18   ar
    33    18    19    1
    34    18    20   ar
    35    19    36    1
    36    19    37    1
    37    19    38    1
    38    21    22   ar
    39    21    39    1
    40    22    40    1
    41    23    24    1
    42    23    41    1
    43    24    25    1
    44    25    26    2
    45    25    42    1
    46    26    43    1
@<TRIPOS>SUBSTRUCTURE
     1 ZINC000080099940        1 TEMP              0 ****  ****    0 ROOT


##########                                Name:    ZINC001085817863
##########                DOCK_Rotatable_Bonds:                   7
##########                         Heavy_Atoms:                  24
##########                    Molecular_Weight:             326.442
##########                DOCK_Rotatable_Bonds:                   7
##########                       Formal_Charge:           0.0299998
##########                     HBond_Acceptors:                   5
##########                        HBond_Donors:                   0
##########                         Heavy_Atoms:                  24
##########                          Grid_Score:          -29.120590
##########                     Grid_vdw_energy:          -29.435122
##########                      Grid_es_energy:            0.314531
##########           Internal_energy_repulsive:           14.844662

@<TRIPOS>MOLECULE
ZINC001085817863
 50 52 1 0 0
SMALL
USER_CHARGES


@<TRIPOS>ATOM
      1 C1         -4.9597    4.3402   53.1139 C.3     1  ZINC001085817863   -0.1400
      2 C2         -4.4297    4.3467   51.6786 C.3     1  ZINC001085817863   -0.0700
      3 C3         -4.2899    2.9286   51.1882 C.2     1  ZINC001085817863    0.1100
      4 C4         -3.1305    2.2038   51.1562 C.2     1  ZINC001085817863   -0.2400
      5 C5         -1.7954    2.6502   51.5884 C.2     1  ZINC001085817863    0.6000
      6 O6         -1.5216    2.6908   52.7727 O.2     1  ZINC001085817863   -0.5300
      7 N7         -0.8768    3.0138   50.6715 N.am    1  ZINC001085817863   -0.6100
      8 C8          0.4513    3.4578   51.1015 C.3     1  ZINC001085817863    0.0800
      9 C9         -1.2066    2.9648   49.2450 C.3     1  ZINC001085817863    0.1300
     10 C10        -0.0226    2.3869   48.4673 C.3     1  ZINC001085817863    0.0100
     11 H11         0.7523    3.1271   48.2679 H       1  ZINC001085817863    0.0800
     12 C12         0.5193    1.0790   49.0609 C.3     1  ZINC001085817863   -0.1400
     13 C13         0.6659    0.6727   47.5879 C.3     1  ZINC001085817863    0.0000
     14 N14        -0.4225    1.6188   47.2734 N.3     1  ZINC001085817863   -0.4400
     15 C15        -0.1312    2.3662   46.0428 C.3     1  ZINC001085817863    0.0700
     16 C16        -0.0260    1.4068   44.8854 C.ar    1  ZINC001085817863   -0.1300
     17 C17        -1.1190    0.6438   44.5046 C.ar    1  ZINC001085817863   -0.0700
     18 C18        -0.9761   -0.2253   43.4336 C.ar    1  ZINC001085817863   -0.1700
     19 C19         0.2421   -0.3015   42.7859 C.ar    1  ZINC001085817863    0.1000
     20 N20         1.2609    0.4398   43.1758 N.ar    1  ZINC001085817863   -0.4800
     21 C21         1.1599    1.2807   44.1865 C.ar    1  ZINC001085817863    0.1200
     22 C22        -3.4858    0.8917   50.6050 C.2     1  ZINC001085817863   -0.1900
     23 C23        -4.8065    0.9317   50.3543 C.2     1  ZINC001085817863   -0.0200
     24 N24        -5.2863    2.1578   50.7125 N.pl3   1  ZINC001085817863   -0.4400
     25 C25        -6.6839    2.5790   50.5877 C.3     1  ZINC001085817863    0.0600
     26 H26        -5.0608    5.3658   53.4687 H       1  ZINC001085817863    0.0600
     27 H27        -5.9324    3.8492   53.1398 H       1  ZINC001085817863    0.0500
     28 H28        -4.2632    3.8006   53.7559 H       1  ZINC001085817863    0.0600
     29 H29        -5.1261    4.8862   51.0367 H       1  ZINC001085817863    0.0600
     30 H30        -3.4569    4.8377   51.6528 H       1  ZINC001085817863    0.1100
     31 H31         0.9284    2.6680   51.6817 H       1  ZINC001085817863    0.0700
     32 H32         1.0599    3.6838   50.2260 H       1  ZINC001085817863    0.0700
     33 H33         0.3538    4.3522   51.7169 H       1  ZINC001085817863    0.0600
     34 H34        -2.0824    2.3332   49.0960 H       1  ZINC001085817863    0.0800
     35 H35        -1.4199    3.9719   48.8866 H       1  ZINC001085817863    0.1000
     36 H36         1.4659    1.1877   49.5903 H       1  ZINC001085817863    0.0800
     37 H37        -0.2207    0.4990   49.6125 H       1  ZINC001085817863    0.1000
     38 H38         1.6245    0.9551   47.1528 H       1  ZINC001085817863    0.0700
     39 H39         0.4058   -0.3684   47.3967 H       1  ZINC001085817863    0.0800
     40 H40        -0.9334    3.0791   45.8521 H       1  ZINC001085817863    0.0900
     41 H41         0.8112    2.9019   46.1574 H       1  ZINC001085817863    0.0500
     42 H42        -2.0592    0.7241   45.0298 H       1  ZINC001085817863    0.1300
     43 H43        -1.8066   -0.8353   43.1097 H       1  ZINC001085817863    0.1300
     44 H44         0.3617   -0.9761   41.9511 H       1  ZINC001085817863    0.1600
     45 H45         2.0160    1.8714   44.4770 H       1  ZINC001085817863    0.1500
     46 H46        -2.8193    0.0592   50.4342 H       1  ZINC001085817863    0.1600
     47 H47        -5.3923    0.1241   49.9410 H       1  ZINC001085817863    0.1600
     48 H48        -7.2210    2.3319   51.5034 H       1  ZINC001085817863    0.0800
     49 H49        -6.7255    3.6554   50.4214 H       1  ZINC001085817863    0.0900
     50 H50        -7.1450    2.0631   49.7456 H       1  ZINC001085817863    0.0900
@<TRIPOS>BOND
     1     1     2    1
     2     1    26    1
     3     1    27    1
     4     1    28    1
     5     2     3    1
     6     2    29    1
     7     2    30    1
     8     3    24    1
     9     3     4    2
    10     4     5    1
    11     4    22    1
    12     5     6    2
    13     5     7   am
    14     7     8    1
    15     7     9    1
    16     8    31    1
    17     8    32    1
    18     8    33    1
    19     9    10    1
    20     9    34    1
    21     9    35    1
    22    10    11    1
    23    10    14    1
    24    10    12    1
    25    12    13    1
    26    12    36    1
    27    12    37    1
    28    13    14    1
    29    13    38    1
    30    13    39    1
    31    14    15    1
    32    15    16    1
    33    15    40    1
    34    15    41    1
    35    16    21   ar
    36    16    17   ar
    37    17    18   ar
    38    17    42    1
    39    18    19   ar
    40    18    43    1
    41    19    20   ar
    42    19    44    1
    43    20    21   ar
    44    21    45    1
    45    22    23    2
    46    22    46    1
    47    23    24    1
    48    23    47    1
    49    24    25    1
    50    25    48    1
    51    25    49    1
    52    25    50    1
@<TRIPOS>SUBSTRUCTURE
     1 ZINC001085817863        1 TEMP              0 ****  ****    0 ROOT


##########                                Name:    ZINC000331626032
##########                DOCK_Rotatable_Bonds:                   5
##########                         Heavy_Atoms:                  25
##########                    Molecular_Weight:              339.44
##########                DOCK_Rotatable_Bonds:                   5
##########                       Formal_Charge:        -2.16067e-07
##########                     HBond_Acceptors:                   6
##########                        HBond_Donors:                   2
##########                         Heavy_Atoms:                  25
##########                          Grid_Score:          -29.111496
##########                     Grid_vdw_energy:          -28.769266
##########                      Grid_es_energy:           -0.342229
##########           Internal_energy_repulsive:           20.674585

@<TRIPOS>MOLECULE
ZINC000331626032
 50 52 1 0 0
SMALL
USER_CHARGES


@<TRIPOS>ATOM
      1 C1          0.3572    4.6459   46.9109 C.3     1  ZINC000331626032   -0.2000
      2 C2          0.1634    3.1871   46.4922 C.3     1  ZINC000331626032    0.0700
      3 H3         -0.7770    3.0866   45.9502 H       1  ZINC000331626032    0.1100
      4 C4          1.3036    2.7642   45.6022 C.2     1  ZINC000331626032    0.5200
      5 O5          2.3688    3.3408   45.6662 O.2     1  ZINC000331626032   -0.5000
      6 N6          1.1398    1.7454   44.7354 N.am    1  ZINC000331626032   -0.5800
      7 C7         -0.1467    1.0491   44.6580 C.3     1  ZINC000331626032    0.0800
      8 C8          2.1986    1.3527   43.9090 C.ar    1  ZINC000331626032    0.1400
      9 C9          2.2630    1.8059   42.5979 C.ar    1  ZINC000331626032   -0.1000
     10 C10         3.3094    1.4166   41.7849 C.ar    1  ZINC000331626032   -0.1100
     11 C11         4.2919    0.5761   42.2749 C.ar    1  ZINC000331626032   -0.1200
     12 C12         4.2305    0.1228   43.5799 C.ar    1  ZINC000331626032   -0.1100
     13 C13         3.1904    0.5138   44.4000 C.ar    1  ZINC000331626032   -0.1200
     14 N14         0.1330    2.3343   47.6879 N.3     1  ZINC000331626032   -0.5100
     15 C15         1.2593    2.6381   48.5797 C.3     1  ZINC000331626032    0.0500
     16 C16         1.2793    1.6376   49.7375 C.3     1  ZINC000331626032   -0.1100
     17 C17        -0.0423    1.7267   50.5055 C.3     1  ZINC000331626032   -0.1100
     18 C18        -1.2019    1.4538   49.5434 C.3     1  ZINC000331626032   -0.0400
     19 H19        -1.1157    0.4419   49.1474 H       1  ZINC000331626032    0.1000
     20 C20        -2.5097    1.5967   50.2785 C.ar    1  ZINC000331626032    0.2300
     21 C21        -2.8048    2.7642   50.9642 C.ar    1  ZINC000331626032   -0.2900
     22 C22        -4.0189    2.8545   51.6273 C.ar    1  ZINC000331626032    0.1900
     23 N23        -4.8544    1.8300   51.5860 N.ar    1  ZINC000331626032   -0.5700
     24 C24        -4.5415    0.7275   50.9209 C.ar    1  ZINC000331626032    0.5700
     25 N25        -5.4397   -0.3255   50.8982 N.pl3   1  ZINC000331626032   -0.8200
     26 N26        -3.3922    0.6112   50.2725 N.ar    1  ZINC000331626032   -0.5700
     27 C27        -1.1500    2.4596   48.3913 C.3     1  ZINC000331626032    0.0700
     28 H28         1.2976    4.7464   47.4529 H       1  ZINC000331626032    0.0700
     29 H29         0.3798    5.2787   46.0237 H       1  ZINC000331626032    0.0800
     30 H30        -0.4676    4.9518   47.5546 H       1  ZINC000331626032    0.0700
     31 H31        -0.7814    1.5391   43.9196 H       1  ZINC000331626032    0.0600
     32 H32         0.0182    0.0123   44.3646 H       1  ZINC000331626032    0.0800
     33 H33        -0.6345    1.0777   45.6324 H       1  ZINC000331626032    0.0800
     34 H34         1.4954    2.4618   42.2143 H       1  ZINC000331626032    0.1200
     35 H35         3.3599    1.7686   40.7651 H       1  ZINC000331626032    0.1300
     36 H36         5.1090    0.2729   41.6370 H       1  ZINC000331626032    0.1300
     37 H37         4.9992   -0.5341   43.9595 H       1  ZINC000331626032    0.1300
     38 H38         3.1429    0.1594   45.4191 H       1  ZINC000331626032    0.1200
     39 H39         2.1934    2.5672   48.0223 H       1  ZINC000331626032    0.0900
     40 H40         1.1480    3.6481   48.9743 H       1  ZINC000331626032    0.0300
     41 H41         1.4046    0.6287   49.3445 H       1  ZINC000331626032    0.0800
     42 H42         2.1062    1.8729   50.4076 H       1  ZINC000331626032    0.0700
     43 H43        -0.0499    0.9856   51.3046 H       1  ZINC000331626032    0.0700
     44 H44        -0.1496    2.7243   50.9315 H       1  ZINC000331626032    0.0700
     45 H45        -2.1040    3.5858   50.9820 H       1  ZINC000331626032    0.1400
     46 H46        -4.2793    3.7505   52.1713 H       1  ZINC000331626032    0.1700
     47 H47        -6.2864   -0.2509   51.3654 H       1  ZINC000331626032    0.4100
     48 H48        -5.2223   -1.1379   50.4149 H       1  ZINC000331626032    0.4100
     49 H49        -1.2500    3.4705   48.7868 H       1  ZINC000331626032    0.0400
     50 H50        -1.9659    2.2591   47.6969 H       1  ZINC000331626032    0.0800
@<TRIPOS>BOND
     1     1     2    1
     2     1    28    1
     3     1    29    1
     4     1    30    1
     5     2     3    1
     6     2     4    1
     7     2    14    1
     8     4     5    2
     9     4     6   am
    10     6     7    1
    11     6     8    1
    12     7    31    1
    13     7    32    1
    14     7    33    1
    15     8    13   ar
    16     8     9   ar
    17     9    10   ar
    18     9    34    1
    19    10    11   ar
    20    10    35    1
    21    11    12   ar
    22    11    36    1
    23    12    13   ar
    24    12    37    1
    25    13    38    1
    26    14    27    1
    27    14    15    1
    28    15    16    1
    29    15    39    1
    30    15    40    1
    31    16    17    1
    32    16    41    1
    33    16    42    1
    34    17    18    1
    35    17    43    1
    36    17    44    1
    37    18    19    1
    38    18    20    1
    39    18    27    1
    40    20    26   ar
    41    20    21   ar
    42    21    22   ar
    43    21    45    1
    44    22    23   ar
    45    22    46    1
    46    23    24   ar
    47    24    25    1
    48    24    26   ar
    49    25    47    1
    50    25    48    1
    51    27    49    1
    52    27    50    1
@<TRIPOS>SUBSTRUCTURE
     1 ZINC000331626032        1 TEMP              0 ****  ****    0 ROOT


##########                                Name:    ZINC001436455587
##########                DOCK_Rotatable_Bonds:                   9
##########                         Heavy_Atoms:                  21
##########                    Molecular_Weight:             378.693
##########                DOCK_Rotatable_Bonds:                   9
##########                       Formal_Charge:          -0.0200001
##########                     HBond_Acceptors:                   5
##########                        HBond_Donors:                   1
##########                         Heavy_Atoms:                  21
##########                          Grid_Score:          -29.088703
##########                     Grid_vdw_energy:          -28.474415
##########                      Grid_es_energy:           -0.614289
##########           Internal_energy_repulsive:           12.336303

@<TRIPOS>MOLECULE
ZINC001436455587
 42 42 1 0 0
SMALL
USER_CHARGES


@<TRIPOS>ATOM
      1 C1          1.9752    1.4904   49.2642 C.3     1  ZINC001436455587   -0.1500
      2 C2          0.5151    1.9450   49.3112 C.3     1  ZINC001436455587   -0.1300
      3 C3          0.0566    2.0381   50.7680 C.3     1  ZINC001436455587   -0.1400
      4 C4         -1.4047    2.4890   50.8148 C.3     1  ZINC001436455587    0.0800
      5 H5         -1.7090    2.6280   51.8523 H       1  ZINC001436455587    0.0700
      6 C6         -2.2884    1.4237   50.1626 C.3     1  ZINC001436455587    0.1200
      7 N7         -3.6974    1.7405   50.4085 N.am    1  ZINC001436455587   -0.7200
      8 C8         -4.6300    0.7709   50.3278 C.2     1  ZINC001436455587    0.5200
      9 O9         -4.3027   -0.3640   50.0532 O.2     1  ZINC001436455587   -0.5100
     10 C10        -6.0798    1.0972   50.5790 C.3     1  ZINC001436455587    0.0600
     11 H11        -6.7099    0.3738   50.0614 H       1  ZINC001436455587    0.1000
     12 C12        -6.3837    2.5032   50.0579 C.3     1  ZINC001436455587   -0.1800
     13 O13        -6.3444    1.0416   51.9821 O.3     1  ZINC001436455587   -0.2700
     14 C14        -7.6246    1.2698   52.3783 C.ar    1  ZINC001436455587    0.1600
     15 C15        -8.6378    0.4103   51.9813 C.ar    1  ZINC001436455587   -0.2000
     16 C16        -9.9385    0.6436   52.3853 C.ar    1  ZINC001436455587   -0.0500
     17 C17       -10.2308    1.7339   53.1851 C.ar    1  ZINC001436455587   -0.0700
     18 Cl18      -11.8659    2.0247   53.6906 Cl      1  ZINC001436455587   -0.0600
     19 C19        -9.2214    2.5930   53.5829 C.ar    1  ZINC001436455587   -0.0400
     20 C20        -7.9185    2.3603   53.1854 C.ar    1  ZINC001436455587   -0.1200
     21 Br21       -6.5393    3.5343   53.7292 Br      1  ZINC001436455587   -0.0100
     22 O22        -1.5455    3.7228   50.1078 O.3     1  ZINC001436455587   -0.3800
     23 C23        -1.0000    4.8514   50.7939 C.3     1  ZINC001436455587    0.0200
     24 H24         2.5973    2.2107   49.7957 H       1  ZINC001436455587    0.0500
     25 H25         2.0668    0.5126   49.7372 H       1  ZINC001436455587    0.0600
     26 H26         2.3019    1.4240   48.2265 H       1  ZINC001436455587    0.0600
     27 H27         0.4235    2.9228   48.8384 H       1  ZINC001436455587    0.0600
     28 H28        -0.1070    1.2247   48.7799 H       1  ZINC001436455587    0.0700
     29 H29         0.1506    1.0609   51.2417 H       1  ZINC001436455587    0.0800
     30 H30         0.6769    2.7603   51.2986 H       1  ZINC001436455587    0.0800
     31 H31        -2.1022    1.4049   49.0887 H       1  ZINC001436455587    0.0800
     32 H32        -2.0556    0.4478   50.5888 H       1  ZINC001436455587    0.0800
     33 H33        -3.9591    2.6481   50.6293 H       1  ZINC001436455587    0.4000
     34 H34        -7.4323    2.7392   50.2396 H       1  ZINC001436455587    0.0800
     35 H35        -5.7536    3.2266   50.5754 H       1  ZINC001436455587    0.0800
     36 H36        -6.1819    2.5456   48.9876 H       1  ZINC001436455587    0.0800
     37 H37        -8.4105   -0.4406   51.3565 H       1  ZINC001436455587    0.1500
     38 H38       -10.7277   -0.0257   52.0763 H       1  ZINC001436455587    0.1400
     39 H39        -9.4515    3.4435   54.2075 H       1  ZINC001436455587    0.1500
     40 H40         0.0803    4.7361   50.8814 H       1  ZINC001436455587    0.0500
     41 H41        -1.2244    5.7598   50.2347 H       1  ZINC001436455587    0.0900
     42 H42        -1.4400    4.9192   51.7888 H       1  ZINC001436455587    0.0400
@<TRIPOS>BOND
     1     1     2    1
     2     1    24    1
     3     1    25    1
     4     1    26    1
     5     2     3    1
     6     2    27    1
     7     2    28    1
     8     3     4    1
     9     3    29    1
    10     3    30    1
    11     4     5    1
    12     4     6    1
    13     4    22    1
    14     6     7    1
    15     6    31    1
    16     6    32    1
    17     7     8   am
    18     7    33    1
    19     8     9    2
    20     8    10    1
    21    10    11    1
    22    10    12    1
    23    10    13    1
    24    12    34    1
    25    12    35    1
    26    12    36    1
    27    13    14    1
    28    14    20   ar
    29    14    15   ar
    30    15    16   ar
    31    15    37    1
    32    16    17   ar
    33    16    38    1
    34    17    18    1
    35    17    19   ar
    36    19    20   ar
    37    19    39    1
    38    20    21    1
    39    22    23    1
    40    23    40    1
    41    23    41    1
    42    23    42    1
@<TRIPOS>SUBSTRUCTURE
     1 ZINC001436455587        1 TEMP              0 ****  ****    0 ROOT


##########                                Name:    ZINC001282645012
##########                DOCK_Rotatable_Bonds:                   9
##########                         Heavy_Atoms:                  27
##########                    Molecular_Weight:             372.511
##########                DOCK_Rotatable_Bonds:                   9
##########                       Formal_Charge:          -0.0200004
##########                     HBond_Acceptors:                   6
##########                        HBond_Donors:                   1
##########                         Heavy_Atoms:                  27
##########                          Grid_Score:          -29.086174
##########                     Grid_vdw_energy:          -27.716084
##########                      Grid_es_energy:           -1.370091
##########           Internal_energy_repulsive:           31.919094

@<TRIPOS>MOLECULE
ZINC001282645012
 59 61 1 0 0
SMALL
USER_CHARGES


@<TRIPOS>ATOM
      1 C1          0.0851    0.7661   44.4385 C.2     1  ZINC001282645012   -0.1900
      2 C2         -0.3497    1.9966   44.5528 C.2     1  ZINC001282645012   -0.1300
      3 C3          0.6283    3.1261   44.7494 C.3     1  ZINC001282645012   -0.0500
      4 C4          1.5155    3.2542   43.5095 C.3     1  ZINC001282645012   -0.1500
      5 C5         -0.1382    4.4326   44.9653 C.3     1  ZINC001282645012   -0.1400
      6 C6          1.4874    2.8428   45.9547 C.2     1  ZINC001282645012    0.5500
      7 O7          2.6952    2.9074   45.8672 O.2     1  ZINC001282645012   -0.5300
      8 N8          0.9133    2.5176   47.1300 N.am    1  ZINC001282645012   -0.6300
      9 C9          1.5225    2.1921   48.4642 C.3     1  ZINC001282645012    0.1200
     10 H10         2.6114    2.2123   48.5073 H       1  ZINC001282645012    0.1300
     11 C11         0.8632    0.8124   48.7650 C.3     1  ZINC001282645012   -0.1300
     12 C12        -0.5368    0.9328   48.1144 C.3     1  ZINC001282645012   -0.1300
     13 C13        -0.5331    2.3753   47.5108 C.3     1  ZINC001282645012    0.1200
     14 H14        -1.2539    2.5532   46.7128 H       1  ZINC001282645012    0.1200
     15 C15        -0.6407    3.3287   48.7389 C.3     1  ZINC001282645012    0.1300
     16 H16        -0.8283    4.3524   48.4152 H       1  ZINC001282645012    0.1000
     17 N17        -1.6935    2.8769   49.6521 N.am    1  ZINC001282645012   -0.7100
     18 C18        -2.1442    3.6989   50.6204 C.2     1  ZINC001282645012    0.5100
     19 O19        -1.6771    4.8121   50.7367 O.2     1  ZINC001282645012   -0.5100
     20 C20        -3.2284    3.2349   51.5585 C.3     1  ZINC001282645012    0.1200
     21 H21        -2.7795    2.8872   52.4890 H       1  ZINC001282645012    0.1300
     22 C22        -4.1792    4.3967   51.8538 C.3     1  ZINC001282645012   -0.1100
     23 C23        -5.1155    4.0106   53.0006 C.3     1  ZINC001282645012   -0.1000
     24 C24        -4.4154    4.2624   54.3375 C.3     1  ZINC001282645012   -0.1500
     25 C25        -6.3893    4.8547   52.9250 C.3     1  ZINC001282645012   -0.1500
     26 N26        -3.9754    2.1383   50.9373 N.pl3   1  ZINC001282645012   -0.4500
     27 C27        -5.1799    2.2377   50.2947 C.2     1  ZINC001282645012   -0.0600
     28 C28        -5.5026    0.9985   49.8780 C.2     1  ZINC001282645012   -0.0200
     29 N29        -4.5220    0.1651   50.2559 N.2     1  ZINC001282645012   -0.4900
     30 C30        -3.6014    0.8418   50.8865 C.2     1  ZINC001282645012    0.1900
     31 C31         0.7940    3.2183   49.3835 C.3     1  ZINC001282645012   -0.1400
     32 H32         1.1445    0.5612   44.4851 H       1  ZINC001282645012    0.1000
     33 H33        -0.6161   -0.0439   44.3021 H       1  ZINC001282645012    0.1000
     34 H34        -1.4091    2.2015   44.5063 H       1  ZINC001282645012    0.1100
     35 H35         0.8941    3.4592   42.6377 H       1  ZINC001282645012    0.0700
     36 H36         2.2228    4.0713   43.6517 H       1  ZINC001282645012    0.0700
     37 H37         2.0616    2.3235   43.3557 H       1  ZINC001282645012    0.0600
     38 H38        -0.7703    4.3413   45.8486 H       1  ZINC001282645012    0.0600
     39 H39         0.5692    5.2496   45.1074 H       1  ZINC001282645012    0.0700
     40 H40        -0.7596    4.6375   44.0935 H       1  ZINC001282645012    0.0700
     41 H41         1.4330    0.0058   48.3035 H       1  ZINC001282645012    0.0800
     42 H42         0.7748    0.6553   49.8400 H       1  ZINC001282645012    0.0800
     43 H43        -0.6614    0.1860   47.3304 H       1  ZINC001282645012    0.0700
     44 H44        -1.3194    0.8354   48.8668 H       1  ZINC001282645012    0.0800
     45 H45        -2.0662    1.9861   49.5597 H       1  ZINC001282645012    0.4000
     46 H46        -3.6010    5.2762   52.1371 H       1  ZINC001282645012    0.0900
     47 H47        -4.7675    4.6198   50.9637 H       1  ZINC001282645012    0.0800
     48 H48        -5.3739    2.9548   52.9190 H       1  ZINC001282645012    0.0700
     49 H49        -4.1570    5.3182   54.4191 H       1  ZINC001282645012    0.0600
     50 H50        -5.0824    3.9874   55.1544 H       1  ZINC001282645012    0.0600
     51 H51        -3.5079    3.6611   54.3912 H       1  ZINC001282645012    0.0500
     52 H52        -6.9323    4.6121   52.0115 H       1  ZINC001282645012    0.0600
     53 H53        -7.0184    4.6413   53.7892 H       1  ZINC001282645012    0.0600
     54 H54        -6.1248    5.9121   52.9205 H       1  ZINC001282645012    0.0600
     55 H55        -5.7601    3.1371   50.1499 H       1  ZINC001282645012    0.1700
     56 H56        -6.3947    0.7237   49.3348 H       1  ZINC001282645012    0.1700
     57 H57        -2.6939    0.4316   51.3044 H       1  ZINC001282645012    0.2000
     58 H58         0.7304    2.8193   50.3958 H       1  ZINC001282645012    0.0900
     59 H59         1.2910    4.1882   49.3825 H       1  ZINC001282645012    0.0900
@<TRIPOS>BOND
     1     1     2    2
     2     1    32    1
     3     1    33    1
     4     2     3    1
     5     2    34    1
     6     3     4    1
     7     3     5    1
     8     3     6    1
     9     4    35    1
    10     4    36    1
    11     4    37    1
    12     5    38    1
    13     5    39    1
    14     5    40    1
    15     6     7    2
    16     6     8   am
    17     8    13    1
    18     8     9    1
    19     9    10    1
    20     9    31    1
    21     9    11    1
    22    11    12    1
    23    11    41    1
    24    11    42    1
    25    12    13    1
    26    12    43    1
    27    12    44    1
    28    13    14    1
    29    13    15    1
    30    15    16    1
    31    15    17    1
    32    15    31    1
    33    17    18   am
    34    17    45    1
    35    18    19    2
    36    18    20    1
    37    20    21    1
    38    20    22    1
    39    20    26    1
    40    22    23    1
    41    22    46    1
    42    22    47    1
    43    23    24    1
    44    23    25    1
    45    23    48    1
    46    24    49    1
    47    24    50    1
    48    24    51    1
    49    25    52    1
    50    25    53    1
    51    25    54    1
    52    26    30    1
    53    26    27    1
    54    27    28    2
    55    27    55    1
    56    28    29    1
    57    28    56    1
    58    29    30    2
    59    30    57    1
    60    31    58    1
    61    31    59    1
@<TRIPOS>SUBSTRUCTURE
     1 ZINC001282645012        1 TEMP              0 ****  ****    0 ROOT


##########                                Name:    ZINC000521663393
##########                DOCK_Rotatable_Bonds:                   5
##########                         Heavy_Atoms:                  27
##########                    Molecular_Weight:              386.49
##########                DOCK_Rotatable_Bonds:                   5
##########                       Formal_Charge:               -0.02
##########                     HBond_Acceptors:                   6
##########                        HBond_Donors:                   1
##########                         Heavy_Atoms:                  27
##########                          Grid_Score:          -29.073860
##########                     Grid_vdw_energy:          -29.247643
##########                      Grid_es_energy:            0.173782
##########           Internal_energy_repulsive:           27.027906

@<TRIPOS>MOLECULE
ZINC000521663393
 50 53 1 0 0
SMALL
USER_CHARGES


@<TRIPOS>ATOM
      1 C1         -0.9662    4.5821   52.0431 C.3     1  ZINC000521663393   -0.1500
      2 C2         -1.9996    4.0140   51.0683 C.3     1  ZINC000521663393    0.0800
      3 H3         -1.8761    4.4524   50.0781 H       1  ZINC000521663393    0.0900
      4 O4         -3.3341    4.2297   51.5579 O.3     1  ZINC000521663393   -0.2900
      5 C5         -4.1221    3.1830   51.1881 C.ar    1  ZINC000521663393    0.1400
      6 C6         -5.5092    3.0940   51.1112 C.ar    1  ZINC000521663393   -0.1800
      7 C7         -6.1096    1.9140   50.7151 C.ar    1  ZINC000521663393    0.1400
      8 F8         -7.4564    1.8357   50.6436 F       1  ZINC000521663393   -0.1300
      9 C9         -5.3368    0.8117   50.3909 C.ar    1  ZINC000521663393   -0.1800
     10 C10        -3.9576    0.8956   50.4611 C.ar    1  ZINC000521663393   -0.0200
     11 C11        -3.3582    2.0720   50.8525 C.ar    1  ZINC000521663393   -0.2000
     12 C12        -1.8998    2.4716   51.0013 C.3     1  ZINC000521663393    0.1700
     13 H13        -1.4772    2.0678   51.9211 H       1  ZINC000521663393    0.1200
     14 N14        -1.1187    2.0445   49.8377 N.am    1  ZINC000521663393   -0.7200
     15 C15         0.1142    1.5270   50.0068 C.2     1  ZINC000521663393    0.5300
     16 O16         0.5765    1.4134   51.1223 O.2     1  ZINC000521663393   -0.5000
     17 C17         0.9183    1.0893   48.8098 C.3     1  ZINC000521663393    0.1200
     18 H18         1.0489    0.0075   48.8356 H       1  ZINC000521663393    0.0700
     19 C19         0.1922    1.4778   47.5476 C.ar    1  ZINC000521663393   -0.0900
     20 C20        -0.1056    2.8052   47.3022 C.ar    1  ZINC000521663393   -0.0900
     21 C21        -0.7716    3.1615   46.1445 C.ar    1  ZINC000521663393   -0.1200
     22 C22        -1.1394    2.1905   45.2320 C.ar    1  ZINC000521663393   -0.1100
     23 C23        -0.8407    0.8632   45.4769 C.ar    1  ZINC000521663393   -0.1200
     24 C24        -0.1709    0.5074   46.6327 C.ar    1  ZINC000521663393   -0.1100
     25 N25         2.2340    1.7422   48.8384 N.3     1  ZINC000521663393   -0.5300
     26 C26         2.7831    1.8762   47.4872 C.3     1  ZINC000521663393    0.0500
     27 C27         3.9036    2.9216   47.4819 C.3     1  ZINC000521663393   -0.0700
     28 S28         5.2354    2.3460   48.5788 S.3     1  ZINC000521663393   -0.2700
     29 C29         4.3242    1.9585   50.1047 C.3     1  ZINC000521663393   -0.0700
     30 C30         3.1458    1.0457   49.7489 C.3     1  ZINC000521663393    0.0600
     31 H31         0.0368    4.3467   51.6873 H       1  ZINC000521663393    0.0800
     32 H32        -1.0842    5.6637   52.1081 H       1  ZINC000521663393    0.0800
     33 H33        -1.1151    4.1406   53.0285 H       1  ZINC000521663393    0.0700
     34 H34        -6.1182    3.9499   51.3622 H       1  ZINC000521663393    0.1400
     35 H35        -5.8089   -0.1102   50.0848 H       1  ZINC000521663393    0.1400
     36 H36        -3.3510    0.0384   50.2088 H       1  ZINC000521663393    0.1300
     37 H37        -1.4888    2.1342   48.9456 H       1  ZINC000521663393    0.4000
     38 H38         0.1818    3.5638   48.0152 H       1  ZINC000521663393    0.1300
     39 H39        -1.0050    4.1985   45.9531 H       1  ZINC000521663393    0.1300
     40 H40        -1.6603    2.4688   44.3278 H       1  ZINC000521663393    0.1200
     41 H41        -1.1283    0.1045   44.7642 H       1  ZINC000521663393    0.1300
     42 H42         0.0624   -0.5297   46.8241 H       1  ZINC000521663393    0.1200
     43 H43         3.1824    0.9156   47.1616 H       1  ZINC000521663393    0.0500
     44 H44         1.9929    2.1887   46.8045 H       1  ZINC000521663393    0.1000
     45 H45         4.2889    3.0403   46.4692 H       1  ZINC000521663393    0.1100
     46 H46         3.5171    3.8744   47.8437 H       1  ZINC000521663393    0.0900
     47 H47         4.9843    1.4479   50.8058 H       1  ZINC000521663393    0.1100
     48 H48         3.9516    2.8797   50.5526 H       1  ZINC000521663393    0.1000
     49 H49         2.6110    0.7734   50.6588 H       1  ZINC000521663393    0.0800
     50 H50         3.5199    0.1429   49.2663 H       1  ZINC000521663393    0.0500
@<TRIPOS>BOND
     1     1     2    1
     2     1    31    1
     3     1    32    1
     4     1    33    1
     5     2     3    1
     6     2    12    1
     7     2     4    1
     8     4     5    1
     9     5    11   ar
    10     5     6   ar
    11     6     7   ar
    12     6    34    1
    13     7     8    1
    14     7     9   ar
    15     9    10   ar
    16     9    35    1
    17    10    11   ar
    18    10    36    1
    19    11    12    1
    20    12    13    1
    21    12    14    1
    22    14    15   am
    23    14    37    1
    24    15    16    2
    25    15    17    1
    26    17    18    1
    27    17    19    1
    28    17    25    1
    29    19    24   ar
    30    19    20   ar
    31    20    21   ar
    32    20    38    1
    33    21    22   ar
    34    21    39    1
    35    22    23   ar
    36    22    40    1
    37    23    24   ar
    38    23    41    1
    39    24    42    1
    40    25    30    1
    41    25    26    1
    42    26    27    1
    43    26    43    1
    44    26    44    1
    45    27    28    1
    46    27    45    1
    47    27    46    1
    48    28    29    1
    49    29    30    1
    50    29    47    1
    51    29    48    1
    52    30    49    1
    53    30    50    1
@<TRIPOS>SUBSTRUCTURE
     1 ZINC000521663393        1 TEMP              0 ****  ****    0 ROOT


##########                                Name:    ZINC000971513996
##########                DOCK_Rotatable_Bonds:                   6
##########                         Heavy_Atoms:                  27
##########                    Molecular_Weight:             369.464
##########                DOCK_Rotatable_Bonds:                   6
##########                       Formal_Charge:          -0.0300002
##########                     HBond_Acceptors:                   6
##########                        HBond_Donors:                   1
##########                         Heavy_Atoms:                  27
##########                          Grid_Score:          -29.073816
##########                     Grid_vdw_energy:          -27.810478
##########                      Grid_es_energy:           -1.263338
##########           Internal_energy_repulsive:           20.299637

@<TRIPOS>MOLECULE
ZINC000971513996
 54 57 1 0 0
SMALL
USER_CHARGES


@<TRIPOS>ATOM
      1 C1         -6.9665    3.1591   49.8271 C.3     1  ZINC000971513996   -0.1600
      2 C2         -7.1384    2.1897   50.9983 C.3     1  ZINC000971513996   -0.1400
      3 C3         -5.8159    2.0683   51.7581 C.3     1  ZINC000971513996    0.0800
      4 H4         -5.9562    1.4321   52.6320 H       1  ZINC000971513996    0.0800
      5 O5         -4.8265    1.4919   50.9032 O.3     1  ZINC000971513996   -0.3600
      6 C6         -5.0334    0.1052   50.6271 C.3     1  ZINC000971513996    0.0200
      7 C7         -5.3630    3.4360   52.1999 C.2     1  ZINC000971513996    0.5400
      8 O8         -4.3488    3.9167   51.7405 O.2     1  ZINC000971513996   -0.5100
      9 N9         -6.0851    4.1251   53.1056 N.am    1  ZINC000971513996   -0.6400
     10 C10        -7.3229    3.9090   53.8741 C.3     1  ZINC000971513996    0.1000
     11 C11        -6.7312    4.8262   54.9617 C.3     1  ZINC000971513996   -0.1200
     12 H12        -7.4469    5.4933   55.4421 H       1  ZINC000971513996    0.1100
     13 C13        -5.8635    4.0376   55.9456 C.3     1  ZINC000971513996   -0.1200
     14 C14        -4.6523    4.8869   56.3422 C.3     1  ZINC000971513996    0.1100
     15 N15        -3.9112    5.2263   55.1245 N.am    1  ZINC000971513996   -0.6000
     16 C16        -2.6073    4.9005   55.0228 C.2     1  ZINC000971513996    0.5900
     17 O17        -1.9875    5.1800   54.0142 O.2     1  ZINC000971513996   -0.5200
     18 C18        -1.9339    4.2073   56.1313 C.2     1  ZINC000971513996    0.0200
     19 C19        -1.6604    4.7472   57.3476 C.2     1  ZINC000971513996   -0.1000
     20 C20        -1.0093    3.7569   58.1224 C.ar    1  ZINC000971513996   -0.1100
     21 C21        -0.5015    3.7363   59.4275 C.ar    1  ZINC000971513996   -0.0600
     22 C22         0.0881    2.6036   59.9088 C.ar    1  ZINC000971513996   -0.1200
     23 C23         0.6335    2.5849   61.3136 C.3     1  ZINC000971513996   -0.1100
     24 C24         0.1896    1.4674   59.1163 C.ar    1  ZINC000971513996   -0.0800
     25 C25        -0.3021    1.4626   57.8299 C.ar    1  ZINC000971513996   -0.1300
     26 C26        -0.9072    2.6059   57.3162 C.ar    1  ZINC000971513996    0.1100
     27 N27        -1.4842    2.9013   56.1037 N.pl3   1  ZINC000971513996   -0.5800
     28 C28        -4.5727    5.9127   54.0227 C.3     1  ZINC000971513996    0.0700
     29 C29        -5.9901    5.4243   53.7751 C.3     1  ZINC000971513996    0.1300
     30 H30        -6.5847    6.1807   53.2630 H       1  ZINC000971513996    0.1100
     31 H31        -7.8752    3.1665   49.2252 H       1  ZINC000971513996    0.0600
     32 H32        -6.7762    4.1617   50.2101 H       1  ZINC000971513996    0.0600
     33 H33        -6.1255    2.8397   49.2115 H       1  ZINC000971513996    0.0600
     34 H34        -7.9103    2.5650   51.6702 H       1  ZINC000971513996    0.0800
     35 H35        -7.4310    1.2105   50.6195 H       1  ZINC000971513996    0.0800
     36 H36        -4.9215   -0.4690   51.5468 H       1  ZINC000971513996    0.0400
     37 H37        -6.0372   -0.0400   50.2280 H       1  ZINC000971513996    0.0500
     38 H38        -4.2992   -0.2331   49.8960 H       1  ZINC000971513996    0.0900
     39 H39        -8.2107    4.3203   53.3938 H       1  ZINC000971513996    0.0900
     40 H40        -7.4580    2.8779   54.2007 H       1  ZINC000971513996    0.0800
     41 H41        -6.4469    3.7980   56.8345 H       1  ZINC000971513996    0.0900
     42 H42        -5.5229    3.1162   55.4732 H       1  ZINC000971513996    0.0700
     43 H43        -4.9887    5.7996   56.8341 H       1  ZINC000971513996    0.0800
     44 H44        -4.0110    4.3200   57.0170 H       1  ZINC000971513996    0.1000
     45 H45        -1.8971    5.7516   57.6664 H       1  ZINC000971513996    0.1500
     46 H46        -0.5758    4.6148   60.0513 H       1  ZINC000971513996    0.1200
     47 H47        -0.1452    2.2551   62.0013 H       1  ZINC000971513996    0.0700
     48 H48         1.4789    1.8989   61.3660 H       1  ZINC000971513996    0.0600
     49 H49         0.9612    3.5872   61.5895 H       1  ZINC000971513996    0.0600
     50 H50         0.6590    0.5791   59.5125 H       1  ZINC000971513996    0.1300
     51 H51        -0.2181    0.5744   57.2213 H       1  ZINC000971513996    0.1200
     52 H52        -1.5617    2.2931   55.3521 H       1  ZINC000971513996    0.4200
     53 H53        -4.6154    6.9784   54.2480 H       1  ZINC000971513996    0.0800
     54 H54        -3.9836    5.7711   53.1165 H       1  ZINC000971513996    0.1200
@<TRIPOS>BOND
     1     1     2    1
     2     1    31    1
     3     1    32    1
     4     1    33    1
     5     2     3    1
     6     2    34    1
     7     2    35    1
     8     3     4    1
     9     3     5    1
    10     3     7    1
    11     5     6    1
    12     6    36    1
    13     6    37    1
    14     6    38    1
    15     7     8    2
    16     7     9   am
    17     9    29    1
    18     9    10    1
    19    10    11    1
    20    10    39    1
    21    10    40    1
    22    11    12    1
    23    11    29    1
    24    11    13    1
    25    13    14    1
    26    13    41    1
    27    13    42    1
    28    14    15    1
    29    14    43    1
    30    14    44    1
    31    15    16   am
    32    15    28    1
    33    16    17    2
    34    16    18    1
    35    18    27    1
    36    18    19    2
    37    19    20    1
    38    19    45    1
    39    20    26   ar
    40    20    21   ar
    41    21    22   ar
    42    21    46    1
    43    22    23    1
    44    22    24   ar
    45    23    47    1
    46    23    48    1
    47    23    49    1
    48    24    25   ar
    49    24    50    1
    50    25    26   ar
    51    25    51    1
    52    26    27    1
    53    27    52    1
    54    28    29    1
    55    28    53    1
    56    28    54    1
    57    29    30    1
@<TRIPOS>SUBSTRUCTURE
     1 ZINC000971513996        1 TEMP              0 ****  ****    0 ROOT


##########                                Name:    ZINC000375477402
##########                DOCK_Rotatable_Bonds:                   5
##########                         Heavy_Atoms:                  26
##########                    Molecular_Weight:             378.342
##########                DOCK_Rotatable_Bonds:                   5
##########                       Formal_Charge:         -1.2666e-07
##########                     HBond_Acceptors:                   9
##########                        HBond_Donors:                   1
##########                         Heavy_Atoms:                  26
##########                          Grid_Score:          -29.065273
##########                     Grid_vdw_energy:          -28.867357
##########                      Grid_es_energy:           -0.197917
##########           Internal_energy_repulsive:           12.272564

@<TRIPOS>MOLECULE
ZINC000375477402
 45 47 1 0 0
SMALL
USER_CHARGES


@<TRIPOS>ATOM
      1 O1         -3.0744    3.7418   51.5515 O.2     1  ZINC000375477402   -0.5600
      2 C2         -2.9666    2.8469   50.7355 C.2     1  ZINC000375477402    0.7200
      3 N3         -3.9278    1.9075   50.6345 N.am    1  ZINC000375477402   -0.7300
      4 C4         -5.0996    1.9613   51.5121 C.3     1  ZINC000375477402    0.1800
      5 H5         -4.7735    2.0256   52.5502 H       1  ZINC000375477402    0.1500
      6 C6         -5.9284    3.1725   51.1699 C.ar    1  ZINC000375477402   -0.1300
      7 C7         -6.5601    3.2534   49.9432 C.ar    1  ZINC000375477402   -0.0800
      8 C8         -7.3207    4.3640   49.6276 C.ar    1  ZINC000375477402   -0.0900
      9 C9         -7.4510    5.3956   50.5382 C.ar    1  ZINC000375477402   -0.1100
     10 C10        -6.8196    5.3176   51.7673 C.ar    1  ZINC000375477402    0.0800
     11 F11        -6.9465    6.3256   52.6580 F       1  ZINC000375477402   -0.1200
     12 C12        -6.0615    4.2013   52.0861 C.ar    1  ZINC000375477402    0.1000
     13 F13        -5.4443    4.1229   53.2853 F       1  ZINC000375477402   -0.1100
     14 C14        -5.9398    0.6973   51.3190 C.3     1  ZINC000375477402    0.4400
     15 F15        -7.1858    0.8674   51.9319 F       1  ZINC000375477402   -0.1600
     16 F16        -6.1208    0.4620   49.9518 F       1  ZINC000375477402   -0.1700
     17 F17        -5.2810   -0.3934   51.8967 F       1  ZINC000375477402   -0.1800
     18 N18        -1.8885    2.7974   49.9282 N.am    1  ZINC000375477402   -0.6300
     19 C19        -0.7678    3.7562   49.9305 C.3     1  ZINC000375477402    0.1000
     20 C20         0.4285    2.9727   49.3319 C.3     1  ZINC000375477402   -0.1200
     21 C21        -0.2740    2.1060   48.2631 C.3     1  ZINC000375477402   -0.1100
     22 C22        -1.6310    1.7740   48.9021 C.3     1  ZINC000375477402    0.1400
     23 C23        -0.4575    2.9026   46.9773 C.3     1  ZINC000375477402   -0.1100
     24 C24        -1.0967    2.0013   45.9144 C.3     1  ZINC000375477402   -0.1600
     25 C25        -0.2313    0.7514   45.7327 C.3     1  ZINC000375477402    0.0600
     26 O26        -0.1127    0.0674   46.9819 O.3     1  ZINC000375477402   -0.3800
     27 C27         0.5240    0.8346   48.0076 C.3     1  ZINC000375477402    0.0800
     28 H28        -3.8436    1.1959   49.9807 H       1  ZINC000375477402    0.4000
     29 H29        -6.4592    2.4485   49.2303 H       1  ZINC000375477402    0.1400
     30 H30        -7.8134    4.4256   48.6685 H       1  ZINC000375477402    0.1500
     31 H31        -8.0452    6.2627   50.2904 H       1  ZINC000375477402    0.1500
     32 H32        -1.0056    4.6188   49.3081 H       1  ZINC000375477402    0.0700
     33 H33        -0.5420    4.0730   50.9487 H       1  ZINC000375477402    0.0700
     34 H34         1.1494    3.6499   48.8740 H       1  ZINC000375477402    0.0900
     35 H35         0.9056    2.3497   50.0884 H       1  ZINC000375477402    0.0800
     36 H36        -1.5946    0.7843   49.3575 H       1  ZINC000375477402    0.0800
     37 H37        -2.4156    1.8088   48.1463 H       1  ZINC000375477402    0.0700
     38 H38        -1.1061    3.7576   47.1679 H       1  ZINC000375477402    0.0700
     39 H39         0.5125    3.2516   46.6235 H       1  ZINC000375477402    0.0700
     40 H40        -2.0959    1.7091   46.2372 H       1  ZINC000375477402    0.0700
     41 H41        -1.1606    2.5409   44.9695 H       1  ZINC000375477402    0.0800
     42 H42        -0.6956    0.0915   44.9998 H       1  ZINC000375477402    0.1000
     43 H43         0.7590    1.0429   45.3828 H       1  ZINC000375477402    0.0500
     44 H44         1.5334    1.0970   47.6911 H       1  ZINC000375477402    0.0600
     45 H45         0.5726    0.2462   48.9239 H       1  ZINC000375477402    0.1000
@<TRIPOS>BOND
     1     1     2    2
     2     2     3   am
     3     2    18   am
     4     3     4    1
     5     3    28    1
     6     4     5    1
     7     4     6    1
     8     4    14    1
     9     6    12   ar
    10     6     7   ar
    11     7     8   ar
    12     7    29    1
    13     8     9   ar
    14     8    30    1
    15     9    10   ar
    16     9    31    1
    17    10    11    1
    18    10    12   ar
    19    12    13    1
    20    14    15    1
    21    14    16    1
    22    14    17    1
    23    18    22    1
    24    18    19    1
    25    19    20    1
    26    19    32    1
    27    19    33    1
    28    20    21    1
    29    20    34    1
    30    20    35    1
    31    21    27    1
    32    21    22    1
    33    21    23    1
    34    22    36    1
    35    22    37    1
    36    23    24    1
    37    23    38    1
    38    23    39    1
    39    24    25    1
    40    24    40    1
    41    24    41    1
    42    25    26    1
    43    25    42    1
    44    25    43    1
    45    26    27    1
    46    27    44    1
    47    27    45    1
@<TRIPOS>SUBSTRUCTURE
     1 ZINC000375477402        1 TEMP              0 ****  ****    0 ROOT


##########                                Name:    ZINC000826052721
##########                DOCK_Rotatable_Bonds:                   3
##########                         Heavy_Atoms:                  29
##########                    Molecular_Weight:             393.399
##########                DOCK_Rotatable_Bonds:                   3
##########                       Formal_Charge:        -4.47035e-07
##########                     HBond_Acceptors:                   9
##########                        HBond_Donors:                   2
##########                         Heavy_Atoms:                  29
##########                          Grid_Score:          -29.012152
##########                     Grid_vdw_energy:          -25.616842
##########                      Grid_es_energy:           -3.395309
##########           Internal_energy_repulsive:           31.242058

@<TRIPOS>MOLECULE
ZINC000826052721
 46 50 1 0 0
SMALL
USER_CHARGES


@<TRIPOS>ATOM
      1 C1         -6.2728    6.2274   55.6715 C.3     1  ZINC000826052721   -0.0400
      2 N2         -5.1044    5.3800   55.3979 N.4     1  ZINC000826052721   -0.3800
      3 H3         -5.3008    4.4320   55.6823 H       1  ZINC000826052721    0.4300
      4 C4         -3.9469    5.8854   56.1416 C.3     1  ZINC000826052721    0.0500
      5 C5         -2.7026    5.1255   55.7650 C.ar    1  ZINC000826052721   -0.1300
      6 C6         -1.6095    5.1799   56.6163 C.ar    1  ZINC000826052721   -0.1000
      7 C7         -0.4477    4.5021   56.3043 C.ar    1  ZINC000826052721   -0.1000
      8 C8         -0.3725    3.7651   55.1374 C.ar    1  ZINC000826052721   -0.0800
      9 C9         -1.4607    3.7086   54.2890 C.ar    1  ZINC000826052721   -0.0800
     10 C10        -2.6274    4.3877   54.6022 C.ar    1  ZINC000826052721   -0.1200
     11 C11        -3.7939    4.2979   53.6517 C.3     1  ZINC000826052721    0.1100
     12 H12        -4.2802    3.3290   53.7653 H       1  ZINC000826052721    0.1100
     13 N13        -3.3119    4.4439   52.2718 N.3     1  ZINC000826052721   -0.6200
     14 C14        -3.2247    3.2147   51.6450 C.ar    1  ZINC000826052721    0.1600
     15 C15        -2.0098    2.7517   51.1280 C.ar    1  ZINC000826052721   -0.0400
     16 C16        -0.7882    3.5744   51.2435 C.2     1  ZINC000826052721    0.0700
     17 N17         0.4324    3.1500   51.5791 N.2     1  ZINC000826052721   -0.3800
     18 N18         1.2163    4.1735   51.5620 N.2     1  ZINC000826052721   -0.1600
     19 N19         0.5413    5.2208   51.2402 N.2     1  ZINC000826052721   -0.1700
     20 N20        -0.6883    4.8900   51.0385 N.pl3   1  ZINC000826052721   -0.3400
     21 C21        -1.9620    1.4971   50.5034 C.ar    1  ZINC000826052721    0.1800
     22 N22        -3.0295    0.7487   50.3822 N.ar    1  ZINC000826052721   -0.4700
     23 C23        -4.2234    1.1360   50.8508 C.ar    1  ZINC000826052721    0.0900
     24 C24        -5.3547    0.3126   50.7054 C.ar    1  ZINC000826052721    0.1700
     25 F25        -5.2467   -0.8847   50.0892 F       1  ZINC000826052721   -0.1100
     26 C26        -6.5606    0.7265   51.1895 C.ar    1  ZINC000826052721   -0.1900
     27 C27        -6.6930    1.9581   51.8283 C.ar    1  ZINC000826052721    0.1300
     28 F28        -7.9010    2.3409   52.2969 F       1  ZINC000826052721   -0.1300
     29 C29        -5.6162    2.7821   51.9856 C.ar    1  ZINC000826052721   -0.1500
     30 C30        -4.3622    2.3859   51.4998 C.ar    1  ZINC000826052721   -0.0600
     31 C31        -4.7977    5.4097   53.9600 C.3     1  ZINC000826052721    0.0000
     32 H32        -6.0605    7.2503   55.3605 H       1  ZINC000826052721    0.1200
     33 H33        -7.1327    5.8503   55.1178 H       1  ZINC000826052721    0.1300
     34 H34        -6.4920    6.2102   56.7390 H       1  ZINC000826052721    0.1200
     35 H35        -4.1284    5.7710   57.2103 H       1  ZINC000826052721    0.1400
     36 H36        -3.8061    6.9418   55.9128 H       1  ZINC000826052721    0.1400
     37 H37        -1.6672    5.7552   57.5285 H       1  ZINC000826052721    0.1300
     38 H38         0.4007    4.5475   56.9709 H       1  ZINC000826052721    0.1300
     39 H39         0.5350    3.2344   54.8899 H       1  ZINC000826052721    0.1300
     40 H40        -1.4025    3.1321   53.3776 H       1  ZINC000826052721    0.1400
     41 H41        -2.4259    4.9259   52.2473 H       1  ZINC000826052721    0.4100
     42 H42        -1.0218    1.1411   50.1088 H       1  ZINC000826052721    0.1800
     43 H43        -7.4261    0.0905   51.0757 H       1  ZINC000826052721    0.1600
     44 H44        -5.7298    3.7348   52.4816 H       1  ZINC000826052721    0.1400
     45 H45        -4.3663    6.3755   53.6968 H       1  ZINC000826052721    0.1400
     46 H46        -5.7115    5.2464   53.3885 H       1  ZINC000826052721    0.1400
@<TRIPOS>BOND
     1     1     2    1
     2     1    32    1
     3     1    33    1
     4     1    34    1
     5     2     3    1
     6     2    31    1
     7     2     4    1
     8     4     5    1
     9     4    35    1
    10     4    36    1
    11     5    10   ar
    12     5     6   ar
    13     6     7   ar
    14     6    37    1
    15     7     8   ar
    16     7    38    1
    17     8     9   ar
    18     8    39    1
    19     9    10   ar
    20     9    40    1
    21    10    11    1
    22    11    12    1
    23    11    13    1
    24    11    31    1
    25    13    14    1
    26    13    41    1
    27    14    30   ar
    28    14    15   ar
    29    15    16    1
    30    15    21   ar
    31    16    20    1
    32    16    17    2
    33    17    18    1
    34    18    19    2
    35    19    20    1
    36    21    22   ar
    37    21    42    1
    38    22    23   ar
    39    23    30   ar
    40    23    24   ar
    41    24    25    1
    42    24    26   ar
    43    26    27   ar
    44    26    43    1
    45    27    28    1
    46    27    29   ar
    47    29    30   ar
    48    29    44    1
    49    31    45    1
    50    31    46    1
@<TRIPOS>SUBSTRUCTURE
     1 ZINC000826052721        1 TEMP              0 ****  ****    0 ROOT


##########                                Name:    ZINC000675319328
##########                DOCK_Rotatable_Bonds:                   7
##########                         Heavy_Atoms:                  26
##########                    Molecular_Weight:             363.475
##########                DOCK_Rotatable_Bonds:                   7
##########                       Formal_Charge:          -0.0200007
##########                     HBond_Acceptors:                   6
##########                        HBond_Donors:                   1
##########                         Heavy_Atoms:                  26
##########                          Grid_Score:          -28.990799
##########                     Grid_vdw_energy:          -28.749372
##########                      Grid_es_energy:           -0.241426
##########           Internal_energy_repulsive:           14.238150

@<TRIPOS>MOLECULE
ZINC000675319328
 56 58 1 0 0
SMALL
USER_CHARGES


@<TRIPOS>ATOM
      1 C1        -11.0982    0.8500   52.7625 C.3     1  ZINC000675319328   -0.1600
      2 C2         -9.8091    1.0829   53.5528 C.3     1  ZINC000675319328    0.1600
      3 H3         -9.3336    0.1249   53.7629 H       1  ZINC000675319328    0.0900
      4 C4        -10.1385    1.7884   54.8698 C.3     1  ZINC000675319328   -0.1200
      5 C5         -8.8422    2.0951   55.6223 C.3     1  ZINC000675319328   -0.1200
      6 H6         -8.0180    1.4990   55.2306 H       1  ZINC000675319328    0.0800
      7 C7         -8.5092    3.6105   55.5547 C.3     1  ZINC000675319328   -0.1500
      8 C8         -7.7041    3.7935   56.8659 C.3     1  ZINC000675319328    0.0500
      9 O9         -8.3378    2.9259   57.8193 O.3     1  ZINC000675319328   -0.3900
     10 C10        -9.0181    1.8606   57.1380 C.3     1  ZINC000675319328    0.0500
     11 N11        -8.8981    1.9181   52.7660 N.am    1  ZINC000675319328   -0.7400
     12 C12        -8.1254    1.3598   51.8133 C.2     1  ZINC000675319328    0.7000
     13 O13        -8.1844    0.1630   51.6067 O.2     1  ZINC000675319328   -0.5900
     14 N14        -7.2873    2.1280   51.0895 N.am    1  ZINC000675319328   -0.6200
     15 C15        -7.2380    3.5777   51.3634 C.3     1  ZINC000675319328    0.1300
     16 C16        -5.7919    4.1008   51.3463 C.3     1  ZINC000675319328   -0.1300
     17 C17        -4.8803    3.0963   52.0161 C.3     1  ZINC000675319328    0.0700
     18 N18        -4.3367    2.1935   51.0028 N.3     1  ZINC000675319328   -0.5500
     19 C19        -2.9566    1.8084   51.3268 C.3     1  ZINC000675319328    0.1000
     20 C20        -2.0495    2.1797   50.1821 C.ar    1  ZINC000675319328   -0.0900
     21 C21        -1.6962    3.5011   49.9815 C.ar    1  ZINC000675319328   -0.0900
     22 C22        -0.8644    3.8428   48.9320 C.ar    1  ZINC000675319328   -0.1500
     23 C23        -0.3845    2.8611   48.0818 C.ar    1  ZINC000675319328    0.1000
     24 F24         0.4291    3.1940   47.0558 F       1  ZINC000675319328   -0.1400
     25 C25        -0.7386    1.5379   48.2840 C.ar    1  ZINC000675319328   -0.1500
     26 C26        -1.5667    1.1980   49.3370 C.ar    1  ZINC000675319328   -0.0700
     27 C27        -5.1195    1.0579   50.6890 C.3     1  ZINC000675319328    0.0500
     28 C28        -6.4648    1.4987   50.0763 C.3     1  ZINC000675319328    0.1100
     29 H29       -10.8635    0.3473   51.8242 H       1  ZINC000675319328    0.0600
     30 H30       -11.7761    0.2287   53.3478 H       1  ZINC000675319328    0.0700
     31 H31       -11.5737    1.8081   52.5524 H       1  ZINC000675319328    0.0500
     32 H32       -10.6665    2.7190   54.6613 H       1  ZINC000675319328    0.0700
     33 H33       -10.7689    1.1420   55.4804 H       1  ZINC000675319328    0.0900
     34 H34        -7.8969    3.8397   54.6826 H       1  ZINC000675319328    0.0800
     35 H35        -9.4174    4.2132   55.5641 H       1  ZINC000675319328    0.0800
     36 H36        -6.6658    3.4975   56.7167 H       1  ZINC000675319328    0.0600
     37 H37        -7.7586    4.8290   57.2019 H       1  ZINC000675319328    0.0900
     38 H38       -10.0781    1.8770   57.3915 H       1  ZINC000675319328    0.0700
     39 H39        -8.5833    0.9025   57.4228 H       1  ZINC000675319328    0.0700
     40 H40        -8.8511    2.8727   52.9308 H       1  ZINC000675319328    0.3900
     41 H41        -7.8169    4.1041   50.6045 H       1  ZINC000675319328    0.0600
     42 H42        -7.6759    3.7710   52.3427 H       1  ZINC000675319328    0.0900
     43 H43        -5.4721    4.2497   50.3149 H       1  ZINC000675319328    0.0800
     44 H44        -5.7426    5.0489   51.8815 H       1  ZINC000675319328    0.0800
     45 H45        -4.0639    3.6200   52.5133 H       1  ZINC000675319328    0.0700
     46 H46        -5.4468    2.5224   52.7494 H       1  ZINC000675319328    0.0400
     47 H47        -2.6359    2.3301   52.2285 H       1  ZINC000675319328    0.0900
     48 H48        -2.9093    0.7323   51.4935 H       1  ZINC000675319328    0.0400
     49 H49        -2.0706    4.2667   50.6448 H       1  ZINC000675319328    0.1300
     50 H50        -0.5891    4.8753   48.7751 H       1  ZINC000675319328    0.1400
     51 H51        -0.3652    0.7713   47.6212 H       1  ZINC000675319328    0.1400
     52 H52        -1.8428    0.1660   49.4951 H       1  ZINC000675319328    0.1300
     53 H53        -4.5821    0.4344   49.9744 H       1  ZINC000675319328    0.0900
     54 H54        -5.3068    0.4854   51.5974 H       1  ZINC000675319328    0.0300
     55 H55        -6.9855    0.6272   49.6795 H       1  ZINC000675319328    0.0700
     56 H56        -6.2810    2.2087   49.2701 H       1  ZINC000675319328    0.0900
@<TRIPOS>BOND
     1     1     2    1
     2     1    29    1
     3     1    30    1
     4     1    31    1
     5     2     3    1
     6     2     4    1
     7     2    11    1
     8     4     5    1
     9     4    32    1
    10     4    33    1
    11     5     6    1
    12     5    10    1
    13     5     7    1
    14     7     8    1
    15     7    34    1
    16     7    35    1
    17     8     9    1
    18     8    36    1
    19     8    37    1
    20     9    10    1
    21    10    38    1
    22    10    39    1
    23    11    12   am
    24    11    40    1
    25    12    13    2
    26    12    14   am
    27    14    28    1
    28    14    15    1
    29    15    16    1
    30    15    41    1
    31    15    42    1
    32    16    17    1
    33    16    43    1
    34    16    44    1
    35    17    18    1
    36    17    45    1
    37    17    46    1
    38    18    19    1
    39    18    27    1
    40    19    20    1
    41    19    47    1
    42    19    48    1
    43    20    26   ar
    44    20    21   ar
    45    21    22   ar
    46    21    49    1
    47    22    23   ar
    48    22    50    1
    49    23    24    1
    50    23    25   ar
    51    25    26   ar
    52    25    51    1
    53    26    52    1
    54    27    28    1
    55    27    53    1
    56    27    54    1
    57    28    55    1
    58    28    56    1
@<TRIPOS>SUBSTRUCTURE
     1 ZINC000675319328        1 TEMP              0 ****  ****    0 ROOT


##########                                Name:    ZINC000464867530
##########                DOCK_Rotatable_Bonds:                   8
##########                         Heavy_Atoms:                  30
##########                    Molecular_Weight:              422.49
##########                DOCK_Rotatable_Bonds:                   8
##########                       Formal_Charge:         -0.00999994
##########                     HBond_Acceptors:                   7
##########                        HBond_Donors:                   0
##########                         Heavy_Atoms:                  30
##########                          Grid_Score:          -28.988846
##########                     Grid_vdw_energy:          -28.403311
##########                      Grid_es_energy:           -0.585536
##########           Internal_energy_repulsive:           29.372023

@<TRIPOS>MOLECULE
ZINC000464867530
 59 62 1 0 0
SMALL
USER_CHARGES


@<TRIPOS>ATOM
      1 C1         -4.0281    1.0555   50.3419 C.3     1  ZINC000464867530   -0.1500
      2 C2         -5.2260    0.4518   51.0777 C.3     1  ZINC000464867530   -0.1400
      3 C3         -6.5218    0.9160   50.4093 C.3     1  ZINC000464867530    0.0900
      4 N4         -7.2471    1.8080   51.3174 N.am    1  ZINC000464867530   -0.6100
      5 C5         -6.7272    3.1487   51.5973 C.3     1  ZINC000464867530    0.0700
      6 C6         -7.2449    4.1273   50.5413 C.3     1  ZINC000464867530    0.4300
      7 F7         -6.5595    3.9217   49.3391 F       1  ZINC000464867530   -0.1700
      8 F8         -8.6131    3.9156   50.3402 F       1  ZINC000464867530   -0.1800
      9 F9         -7.0355    5.4395   50.9790 F       1  ZINC000464867530   -0.1800
     10 C10        -8.3926    1.3952   51.8950 C.2     1  ZINC000464867530    0.5300
     11 O11        -8.8229    0.2851   51.6631 O.2     1  ZINC000464867530   -0.5100
     12 C12        -9.1389    2.3126   52.8291 C.3     1  ZINC000464867530   -0.1200
     13 H13        -8.9230    3.3493   52.5703 H       1  ZINC000464867530    0.1000
     14 C14        -8.6982    2.0435   54.2697 C.3     1  ZINC000464867530   -0.1200
     15 C15        -9.4312    2.9971   55.2158 C.3     1  ZINC000464867530   -0.1300
     16 C16       -10.9396    2.7486   55.1172 C.3     1  ZINC000464867530    0.1000
     17 N17       -11.3468    2.8631   53.7102 N.am    1  ZINC000464867530   -0.6100
     18 C18       -12.3460    3.6928   53.3498 C.2     1  ZINC000464867530    0.5500
     19 O19       -12.9173    4.3548   54.1902 O.2     1  ZINC000464867530   -0.5300
     20 C20       -12.7531    3.7980   51.9027 C.3     1  ZINC000464867530   -0.1700
     21 H21       -11.9703    4.1204   51.2161 H       1  ZINC000464867530    0.1300
     22 C22       -14.1863    4.2454   51.6018 C.3     1  ZINC000464867530   -0.1300
     23 C23       -13.7748    2.7930   51.3839 C.3     1  ZINC000464867530   -0.0600
     24 C24       -14.3127    1.6688   52.2847 C.3     1  ZINC000464867530   -0.0900
     25 C25       -13.8460    0.3998   51.5377 C.3     1  ZINC000464867530   -0.0800
     26 C26       -13.7111    0.8181   50.0887 C.ar    1  ZINC000464867530   -0.0900
     27 C27       -13.6316    0.0527   48.9382 C.ar    1  ZINC000464867530   -0.1100
     28 C28       -13.5088    0.6613   47.7041 C.ar    1  ZINC000464867530   -0.1100
     29 C29       -13.4651    2.0400   47.6169 C.ar    1  ZINC000464867530   -0.1200
     30 C30       -13.5445    2.8062   48.7635 C.ar    1  ZINC000464867530   -0.1000
     31 C31       -13.6679    2.1990   50.0017 C.ar    1  ZINC000464867530   -0.0700
     32 C32       -10.6440    2.0568   52.7028 C.3     1  ZINC000464867530    0.1300
     33 H33        -4.0379    0.7287   49.3021 H       1  ZINC000464867530    0.0600
     34 H34        -4.0879    2.1431   50.3815 H       1  ZINC000464867530    0.0600
     35 H35        -3.1050    0.7248   50.8181 H       1  ZINC000464867530    0.0600
     36 H36        -5.1663   -0.6358   51.0381 H       1  ZINC000464867530    0.0700
     37 H37        -5.2162    0.7786   52.1175 H       1  ZINC000464867530    0.0700
     38 H38        -6.2848    1.4491   49.4887 H       1  ZINC000464867530    0.0900
     39 H39        -7.1420    0.0500   50.1784 H       1  ZINC000464867530    0.0900
     40 H40        -7.0612    3.4691   52.5843 H       1  ZINC000464867530    0.1300
     41 H41        -5.6377    3.1288   51.5712 H       1  ZINC000464867530    0.1200
     42 H42        -8.9363    1.0136   54.5360 H       1  ZINC000464867530    0.0800
     43 H43        -7.6231    2.2013   54.3561 H       1  ZINC000464867530    0.0800
     44 H44        -9.0996    2.8207   56.2391 H       1  ZINC000464867530    0.0900
     45 H45        -9.2132    4.0274   54.9348 H       1  ZINC000464867530    0.0700
     46 H46       -11.1699    1.7482   55.4839 H       1  ZINC000464867530    0.0700
     47 H47       -11.4719    3.4899   55.7132 H       1  ZINC000464867530    0.0900
     48 H48       -14.8344    4.4636   52.4506 H       1  ZINC000464867530    0.1100
     49 H49       -14.3463    4.8614   50.7169 H       1  ZINC000464867530    0.1100
     50 H50       -13.8667    1.7205   53.2780 H       1  ZINC000464867530    0.0700
     51 H51       -15.4005    1.7061   52.3442 H       1  ZINC000464867530    0.0800
     52 H52       -12.8840    0.0651   51.9257 H       1  ZINC000464867530    0.0800
     53 H53       -14.5897   -0.3912   51.6351 H       1  ZINC000464867530    0.0800
     54 H54       -13.6653   -1.0247   49.0055 H       1  ZINC000464867530    0.1200
     55 H55       -13.4469    0.0606   46.8087 H       1  ZINC000464867530    0.1300
     56 H56       -13.3686    2.5178   46.6532 H       1  ZINC000464867530    0.1300
     57 H57       -13.5097    3.8834   48.6938 H       1  ZINC000464867530    0.1200
     58 H58       -10.9815    2.3417   51.7063 H       1  ZINC000464867530    0.1000
     59 H59       -10.8498    0.9999   52.8722 H       1  ZINC000464867530    0.0800
@<TRIPOS>BOND
     1     1     2    1
     2     1    33    1
     3     1    34    1
     4     1    35    1
     5     2     3    1
     6     2    36    1
     7     2    37    1
     8     3     4    1
     9     3    38    1
    10     3    39    1
    11     4     5    1
    12     4    10   am
    13     5     6    1
    14     5    40    1
    15     5    41    1
    16     6     7    1
    17     6     8    1
    18     6     9    1
    19    10    11    2
    20    10    12    1
    21    12    13    1
    22    12    32    1
    23    12    14    1
    24    14    15    1
    25    14    42    1
    26    14    43    1
    27    15    16    1
    28    15    44    1
    29    15    45    1
    30    16    17    1
    31    16    46    1
    32    16    47    1
    33    17    18   am
    34    17    32    1
    35    18    19    2
    36    18    20    1
    37    20    21    1
    38    20    23    1
    39    20    22    1
    40    22    23    1
    41    22    48    1
    42    22    49    1
    43    23    31    1
    44    23    24    1
    45    24    25    1
    46    24    50    1
    47    24    51    1
    48    25    26    1
    49    25    52    1
    50    25    53    1
    51    26    31   ar
    52    26    27   ar
    53    27    28   ar
    54    27    54    1
    55    28    29   ar
    56    28    55    1
    57    29    30   ar
    58    29    56    1
    59    30    31   ar
    60    30    57    1
    61    32    58    1
    62    32    59    1
@<TRIPOS>SUBSTRUCTURE
     1 ZINC000464867530        1 TEMP              0 ****  ****    0 ROOT


##########                                Name:    ZINC000866717058
##########                DOCK_Rotatable_Bonds:                   7
##########                         Heavy_Atoms:                  25
##########                    Molecular_Weight:             380.388
##########                DOCK_Rotatable_Bonds:                   7
##########                       Formal_Charge:                0.04
##########                     HBond_Acceptors:                  10
##########                        HBond_Donors:                   1
##########                         Heavy_Atoms:                  25
##########                          Grid_Score:          -28.984409
##########                     Grid_vdw_energy:          -27.787952
##########                      Grid_es_energy:           -1.196457
##########           Internal_energy_repulsive:            9.299866

@<TRIPOS>MOLECULE
ZINC000866717058
 44 45 1 0 0
SMALL
USER_CHARGES


@<TRIPOS>ATOM
      1 C1         -5.7726    0.5059   50.3720 C.3     1  ZINC000866717058   -0.1100
      2 C2         -4.5214    1.2716   50.7171 C.ar    1  ZINC000866717058    0.2400
      3 N3         -3.3646    0.8888   50.2189 N.ar    1  ZINC000866717058   -0.5500
      4 C4         -2.2394    1.5308   50.4944 C.ar    1  ZINC000866717058    0.3500
      5 O5         -1.0741    1.0971   49.9559 O.3     1  ZINC000866717058   -0.2800
      6 C6         -0.3599    2.0172   49.1280 C.3     1  ZINC000866717058    0.0500
      7 H7         -0.7087    3.0307   49.3263 H       1  ZINC000866717058    0.1300
      8 C8          1.1362    1.9237   49.4345 C.3     1  ZINC000866717058   -0.1700
      9 C9         -0.6017    1.6734   47.6569 C.3     1  ZINC000866717058    0.4600
     10 F10        -1.8808    2.0988   47.2827 F       1  ZINC000866717058   -0.1700
     11 F11         0.3545    2.3173   46.8643 F       1  ZINC000866717058   -0.1700
     12 F12        -0.4998    0.2894   47.4786 F       1  ZINC000866717058   -0.1700
     13 C13        -2.2367    2.6444   51.3284 C.ar    1  ZINC000866717058   -0.1900
     14 C14        -3.4266    3.0818   51.8735 C.ar    1  ZINC000866717058    0.0000
     15 C15        -4.6008    2.3831   51.5573 C.ar    1  ZINC000866717058   -0.2300
     16 C16        -5.8996    2.8102   52.1138 C.2     1  ZINC000866717058    0.5800
     17 O17        -6.5856    3.6121   51.5098 O.2     1  ZINC000866717058   -0.5200
     18 N18        -6.3250    2.3115   53.2915 N.am    1  ZINC000866717058   -0.7400
     19 C19        -7.6132    2.7368   53.8445 C.3     1  ZINC000866717058    0.1400
     20 C20        -7.4305    4.0473   54.6128 C.3     1  ZINC000866717058   -0.5700
     21 H21        -7.0535    4.8304   53.9549 H       1  ZINC000866717058    0.1500
     22 C22        -8.7599    4.4831   55.2814 C.3     1  ZINC000866717058   -0.1100
     23 C23        -8.3878    5.4821   56.3911 C.3     1  ZINC000866717058   -0.1200
     24 C24        -7.2221    4.8967   57.2127 C.3     1  ZINC000866717058   -0.5900
     25 S25        -6.3151    3.8102   56.0476 S.o2    1  ZINC000866717058    2.3700
     26 O26        -6.4051    2.4636   56.4924 O.2     1  ZINC000866717058   -0.9200
     27 O27        -5.0450    4.3806   55.7636 O.2     1  ZINC000866717058   -0.9300
     28 H28        -6.2853    1.0006   49.5471 H       1  ZINC000866717058    0.0900
     29 H29        -5.5076   -0.5098   50.0783 H       1  ZINC000866717058    0.0700
     30 H30        -6.4299    0.4732   51.2409 H       1  ZINC000866717058    0.1100
     31 H31         1.6810    2.6255   48.8030 H       1  ZINC000866717058    0.0900
     32 H32         1.3084    2.1687   50.4824 H       1  ZINC000866717058    0.0900
     33 H33         1.4850    0.9103   49.2361 H       1  ZINC000866717058    0.0800
     34 H34        -1.3136    3.1606   51.5470 H       1  ZINC000866717058    0.1600
     35 H35        -3.4535    3.9432   52.5244 H       1  ZINC000866717058    0.1500
     36 H36        -5.7782    1.6709   53.7727 H       1  ZINC000866717058    0.4000
     37 H37        -8.3250    2.8876   53.0330 H       1  ZINC000866717058    0.1000
     38 H38        -7.9899    1.9690   54.5202 H       1  ZINC000866717058    0.1000
     39 H39        -9.4067    4.9640   54.5476 H       1  ZINC000866717058    0.1100
     40 H40        -9.2626    3.6171   55.7120 H       1  ZINC000866717058    0.0900
     41 H41        -8.0824    6.4285   55.9448 H       1  ZINC000866717058    0.0900
     42 H42        -9.2478    5.6458   57.0403 H       1  ZINC000866717058    0.1000
     43 H43        -6.5702    5.6952   57.5671 H       1  ZINC000866717058    0.1400
     44 H44        -7.6047    4.3181   58.0535 H       1  ZINC000866717058    0.1400
@<TRIPOS>BOND
     1     1     2    1
     2     1    28    1
     3     1    29    1
     4     1    30    1
     5     2    15   ar
     6     2     3   ar
     7     3     4   ar
     8     4     5    1
     9     4    13   ar
    10     5     6    1
    11     6     7    1
    12     6     8    1
    13     6     9    1
    14     8    31    1
    15     8    32    1
    16     8    33    1
    17     9    10    1
    18     9    11    1
    19     9    12    1
    20    13    14   ar
    21    13    34    1
    22    14    15   ar
    23    14    35    1
    24    15    16    1
    25    16    17    2
    26    16    18   am
    27    18    19    1
    28    18    36    1
    29    19    20    1
    30    19    37    1
    31    19    38    1
    32    20    21    1
    33    20    25    1
    34    20    22    1
    35    22    23    1
    36    22    39    1
    37    22    40    1
    38    23    24    1
    39    23    41    1
    40    23    42    1
    41    24    25    1
    42    24    43    1
    43    24    44    1
    44    25    26    2
    45    25    27    2
@<TRIPOS>SUBSTRUCTURE
     1 ZINC000866717058        1 TEMP              0 ****  ****    0 ROOT


##########                                Name:    ZINC000444205493
##########                DOCK_Rotatable_Bonds:                   4
##########                         Heavy_Atoms:                  24
##########                    Molecular_Weight:             415.351
##########                DOCK_Rotatable_Bonds:                   4
##########                       Formal_Charge:         -0.00999995
##########                     HBond_Acceptors:                   6
##########                        HBond_Donors:                   1
##########                         Heavy_Atoms:                  24
##########                          Grid_Score:          -28.983124
##########                     Grid_vdw_energy:          -29.413603
##########                      Grid_es_energy:            0.430478
##########           Internal_energy_repulsive:            5.367085

@<TRIPOS>MOLECULE
ZINC000444205493
 47 49 1 0 0
SMALL
USER_CHARGES


@<TRIPOS>ATOM
      1 C1         -7.6494    1.2261   51.8687 C.3     1  ZINC000444205493   -0.1700
      2 C2         -6.1781    1.2415   51.5434 C.2     1  ZINC000444205493    0.5100
      3 O3         -5.5572    0.2008   51.4930 O.2     1  ZINC000444205493   -0.5100
      4 N4         -5.5520    2.4117   51.3084 N.am    1  ZINC000444205493   -0.6800
      5 C5         -4.1855    2.4259   51.0063 C.ar    1  ZINC000444205493    0.2300
      6 C6         -3.7019    1.6855   49.9363 C.ar    1  ZINC000444205493   -0.1400
      7 C7         -2.3526    1.7020   49.6402 C.ar    1  ZINC000444205493    0.0200
      8 C8         -1.4836    2.4545   50.4084 C.ar    1  ZINC000444205493   -0.6900
      9 S9          0.2366    2.4720   50.0273 S.o2    1  ZINC000444205493    2.7100
     10 O10         0.7329    3.7278   50.4699 O.2     1  ZINC000444205493   -0.9500
     11 O11         0.7593    1.2284   50.4742 O.2     1  ZINC000444205493   -0.9500
     12 N12         0.3732    2.4705   48.3770 N.am    1  ZINC000444205493   -1.0100
     13 C13        -0.1639    3.5011   47.4684 C.3     1  ZINC000444205493    0.1200
     14 C14         0.7094    3.4025   46.1904 C.3     1  ZINC000444205493   -0.1200
     15 C15         0.9625    1.8846   46.1085 C.3     1  ZINC000444205493   -0.0700
     16 C16        -0.1852    1.1784   45.3794 C.3     1  ZINC000444205493   -0.1100
     17 C17         0.3497    0.9903   43.9354 C.3     1  ZINC000444205493   -0.1200
     18 C18         1.8510    0.6777   44.1609 C.3     1  ZINC000444205493   -0.1000
     19 H19         1.9874   -0.3726   44.4182 H       1  ZINC000444205493    0.0700
     20 C20         2.6647    1.0323   42.9147 C.3     1  ZINC000444205493   -0.1500
     21 C21         2.2531    1.5820   45.3480 C.3     1  ZINC000444205493   -0.1100
     22 C22         1.0569    1.4433   47.5728 C.3     1  ZINC000444205493    0.1300
     23 C23        -1.9615    3.1938   51.4749 C.ar    1  ZINC000444205493    0.0300
     24 C24        -3.3106    3.1859   51.7733 C.ar    1  ZINC000444205493   -0.1500
     25 Br25       -3.9636    4.1970   53.2318 Br      1  ZINC000444205493   -0.0300
     26 H26        -7.9761    0.1981   52.0259 H       1  ZINC000444205493    0.1000
     27 H27        -7.8275    1.8064   52.7741 H       1  ZINC000444205493    0.1000
     28 H28        -8.2090    1.6627   51.0415 H       1  ZINC000444205493    0.1000
     29 H29        -6.0486    3.2440   51.3488 H       1  ZINC000444205493    0.4200
     30 H30        -4.3798    1.0968   49.3360 H       1  ZINC000444205493    0.1600
     31 H31        -1.9760    1.1261   48.8078 H       1  ZINC000444205493    0.1500
     32 H32        -1.2071    3.2912   47.2317 H       1  ZINC000444205493    0.0800
     33 H33        -0.0679    4.4896   47.9176 H       1  ZINC000444205493    0.0800
     34 H34         0.1635    3.7556   45.3155 H       1  ZINC000444205493    0.0900
     35 H35         1.6446    3.9488   46.3127 H       1  ZINC000444205493    0.0800
     36 H36        -0.3932    0.2121   45.8390 H       1  ZINC000444205493    0.0700
     37 H37        -1.0788    1.8024   45.3779 H       1  ZINC000444205493    0.0700
     38 H38        -0.1490    0.1543   43.4450 H       1  ZINC000444205493    0.0700
     39 H39         0.2290    1.9062   43.3569 H       1  ZINC000444205493    0.0700
     40 H40         2.5321    2.0891   42.6828 H       1  ZINC000444205493    0.0500
     41 H41         3.7196    0.8305   43.1000 H       1  ZINC000444205493    0.0500
     42 H42         2.3219    0.4299   42.0734 H       1  ZINC000444205493    0.0500
     43 H43         2.6976    2.5070   44.9809 H       1  ZINC000444205493    0.0700
     44 H44         2.9562    1.0590   45.9962 H       1  ZINC000444205493    0.0700
     45 H45         2.1024    1.3645   47.8708 H       1  ZINC000444205493    0.0700
     46 H46         0.5588    0.4827   47.7046 H       1  ZINC000444205493    0.0800
     47 H47        -1.2802    3.7809   52.0729 H       1  ZINC000444205493    0.1500
@<TRIPOS>BOND
     1     1     2    1
     2     1    26    1
     3     1    27    1
     4     1    28    1
     5     2     3    2
     6     2     4   am
     7     4     5    1
     8     4    29    1
     9     5    24   ar
    10     5     6   ar
    11     6     7   ar
    12     6    30    1
    13     7     8   ar
    14     7    31    1
    15     8     9    1
    16     8    23   ar
    17     9    10    2
    18     9    11    2
    19     9    12   am
    20    12    22    1
    21    12    13    1
    22    13    14    1
    23    13    32    1
    24    13    33    1
    25    14    15    1
    26    14    34    1
    27    14    35    1
    28    15    21    1
    29    15    16    1
    30    15    22    1
    31    16    17    1
    32    16    36    1
    33    16    37    1
    34    17    18    1
    35    17    38    1
    36    17    39    1
    37    18    19    1
    38    18    20    1
    39    18    21    1
    40    20    40    1
    41    20    41    1
    42    20    42    1
    43    21    43    1
    44    21    44    1
    45    22    45    1
    46    22    46    1
    47    23    24   ar
    48    23    47    1
    49    24    25    1
@<TRIPOS>SUBSTRUCTURE
     1 ZINC000444205493        1 TEMP              0 ****  ****    0 ROOT


##########                                Name:    ZINC000587344575
##########                DOCK_Rotatable_Bonds:                   7
##########                         Heavy_Atoms:                  30
##########                    Molecular_Weight:             408.475
##########                DOCK_Rotatable_Bonds:                   7
##########                       Formal_Charge:          -0.0100002
##########                     HBond_Acceptors:                   7
##########                        HBond_Donors:                   2
##########                         Heavy_Atoms:                  30
##########                          Grid_Score:          -28.948362
##########                     Grid_vdw_energy:          -29.573093
##########                      Grid_es_energy:            0.624731
##########           Internal_energy_repulsive:           18.555189

@<TRIPOS>MOLECULE
ZINC000587344575
 55 57 1 0 0
SMALL
USER_CHARGES


@<TRIPOS>ATOM
      1 C1         -6.4560    3.4501   54.7925 C.3     1  ZINC000587344575   -0.1200
      2 C2         -6.1394    3.0428   53.3766 C.ar    1  ZINC000587344575    0.0000
      3 C3         -4.8522    3.1487   52.9005 C.ar    1  ZINC000587344575   -0.1600
      4 C4         -4.5590    2.7724   51.5934 C.ar    1  ZINC000587344575    0.1800
      5 N5         -3.2538    2.8806   51.1145 N.am    1  ZINC000587344575   -0.6700
      6 C6         -2.6011    1.7832   50.6832 C.2     1  ZINC000587344575    0.5200
      7 O7         -3.1489    0.7015   50.7117 O.2     1  ZINC000587344575   -0.5000
      8 C8         -1.1906    1.9001   50.1657 C.3     1  ZINC000587344575   -0.1200
      9 H9         -0.4973    1.4012   50.8428 H       1  ZINC000587344575    0.1100
     10 C10        -0.8017    3.3871   49.9994 C.3     1  ZINC000587344575   -0.1200
     11 C11         0.0184    3.3858   48.6848 C.3     1  ZINC000587344575    0.0400
     12 N12        -0.6942    2.3929   47.8406 N.3     1  ZINC000587344575   -0.4800
     13 C13         0.1297    1.9220   46.8204 C.ar    1  ZINC000587344575    0.0700
     14 C14         1.3638    1.3601   47.1289 C.ar    1  ZINC000587344575   -0.1200
     15 C15         2.1812    0.8939   46.1232 C.ar    1  ZINC000587344575   -0.0700
     16 C16         1.7698    0.9848   44.7907 C.ar    1  ZINC000587344575    0.0000
     17 C17         2.6178    0.5003   43.7434 C.1     1  ZINC000587344575    0.2500
     18 N18         3.2903    0.1160   42.9125 N.1     1  ZINC000587344575   -0.4000
     19 C19         0.5282    1.5497   44.4823 C.ar    1  ZINC000587344575   -0.1000
     20 C20        -0.2873    2.0097   45.4934 C.ar    1  ZINC000587344575    0.1300
     21 F21        -1.4873    2.5551   45.1975 F       1  ZINC000587344575   -0.1200
     22 C22        -1.0875    1.2948   48.7536 C.3     1  ZINC000587344575    0.0500
     23 C23        -5.5648    2.2880   50.7634 C.ar    1  ZINC000587344575   -0.1400
     24 C24        -6.8545    2.1794   51.2332 C.ar    1  ZINC000587344575   -0.0600
     25 C25        -7.1513    2.5515   52.5470 C.ar    1  ZINC000587344575   -0.1600
     26 C26        -8.5327    2.4360   53.0542 C.2     1  ZINC000587344575    0.5600
     27 O27        -9.4408    3.0040   52.4791 O.2     1  ZINC000587344575   -0.5300
     28 N28        -8.7871    1.7009   54.1548 N.am    1  ZINC000587344575   -0.7200
     29 C29       -10.1579    1.5877   54.6592 C.3     1  ZINC000587344575    0.1400
     30 C30       -10.3236    0.2545   55.3913 C.3     1  ZINC000587344575   -0.1600
     31 C31       -10.4423    2.7392   55.6259 C.3     1  ZINC000587344575   -0.1600
     32 H32        -6.4494    2.5690   55.4341 H       1  ZINC000587344575    0.0800
     33 H33        -5.7066    4.1600   55.1425 H       1  ZINC000587344575    0.0600
     34 H34        -7.4409    3.9159   54.8250 H       1  ZINC000587344575    0.1000
     35 H35        -4.0691    3.5248   53.5422 H       1  ZINC000587344575    0.1300
     36 H36        -2.8158    3.7457   51.0917 H       1  ZINC000587344575    0.4100
     37 H37        -1.6908    4.0095   49.8986 H       1  ZINC000587344575    0.0900
     38 H38        -0.1885    3.7213   50.8362 H       1  ZINC000587344575    0.0900
     39 H39        -0.0001    4.3709   48.2187 H       1  ZINC000587344575    0.0900
     40 H40         1.0438    3.0666   48.8714 H       1  ZINC000587344575    0.0600
     41 H41         1.6819    1.2897   48.1586 H       1  ZINC000587344575    0.1400
     42 H42         3.1397    0.4585   46.3643 H       1  ZINC000587344575    0.1400
     43 H43         0.2071    1.6215   43.4536 H       1  ZINC000587344575    0.1500
     44 H44        -0.3310    0.5100   48.7379 H       1  ZINC000587344575    0.0600
     45 H45        -2.0533    0.8892   48.4521 H       1  ZINC000587344575    0.1100
     46 H46        -5.3339    1.9971   49.7493 H       1  ZINC000587344575    0.1400
     47 H47        -7.6349    1.8033   50.5883 H       1  ZINC000587344575    0.1300
     48 H48        -8.0627    1.2468   54.6130 H       1  ZINC000587344575    0.4000
     49 H49       -10.8572    1.6332   53.8244 H       1  ZINC000587344575    0.0900
     50 H50        -9.6243    0.2092   56.2262 H       1  ZINC000587344575    0.0600
     51 H51       -11.3434    0.1703   55.7666 H       1  ZINC000587344575    0.0700
     52 H52       -10.1210   -0.5658   54.7026 H       1  ZINC000587344575    0.0600
     53 H53        -9.7430    2.6938   56.4608 H       1  ZINC000587344575    0.0600
     54 H54       -10.3243    3.6889   55.1044 H       1  ZINC000587344575    0.0600
     55 H55       -11.4622    2.6550   56.0012 H       1  ZINC000587344575    0.0700
@<TRIPOS>BOND
     1     1     2    1
     2     1    32    1
     3     1    33    1
     4     1    34    1
     5     2    25   ar
     6     2     3   ar
     7     3     4   ar
     8     3    35    1
     9     4     5    1
    10     4    23   ar
    11     5     6   am
    12     5    36    1
    13     6     7    2
    14     6     8    1
    15     8     9    1
    16     8    22    1
    17     8    10    1
    18    10    11    1
    19    10    37    1
    20    10    38    1
    21    11    12    1
    22    11    39    1
    23    11    40    1
    24    12    13    1
    25    12    22    1
    26    13    20   ar
    27    13    14   ar
    28    14    15   ar
    29    14    41    1
    30    15    16   ar
    31    15    42    1
    32    16    17    1
    33    16    19   ar
    34    17    18    3
    35    19    20   ar
    36    19    43    1
    37    20    21    1
    38    22    44    1
    39    22    45    1
    40    23    24   ar
    41    23    46    1
    42    24    25   ar
    43    24    47    1
    44    25    26    1
    45    26    27    2
    46    26    28   am
    47    28    29    1
    48    28    48    1
    49    29    30    1
    50    29    31    1
    51    29    49    1
    52    30    50    1
    53    30    51    1
    54    30    52    1
    55    31    53    1
    56    31    54    1
    57    31    55    1
@<TRIPOS>SUBSTRUCTURE
     1 ZINC000587344575        1 TEMP              0 ****  ****    0 ROOT


##########                                Name:    ZINC000274267583
##########                DOCK_Rotatable_Bonds:                   5
##########                         Heavy_Atoms:                  24
##########                    Molecular_Weight:             349.407
##########                DOCK_Rotatable_Bonds:                   5
##########                       Formal_Charge:           0.0300001
##########                     HBond_Acceptors:                   7
##########                        HBond_Donors:                   1
##########                         Heavy_Atoms:                  24
##########                          Grid_Score:          -28.937553
##########                     Grid_vdw_energy:          -28.084894
##########                      Grid_es_energy:           -0.852660
##########           Internal_energy_repulsive:           12.460771

@<TRIPOS>MOLECULE
ZINC000274267583
 43 45 1 0 0
SMALL
USER_CHARGES


@<TRIPOS>ATOM
      1 C1        -12.7402    0.0209   52.1804 C.3     1  ZINC000274267583    0.0200
      2 O2        -11.6414    0.0243   53.0940 O.3     1  ZINC000274267583   -0.3100
      3 C3        -10.6650    0.9453   52.8812 C.ar    1  ZINC000274267583    0.1900
      4 C4         -9.5531    0.9833   53.7100 C.ar    1  ZINC000274267583   -0.2300
      5 C5         -8.5617    1.9202   53.4912 C.ar    1  ZINC000274267583    0.0300
      6 C6         -8.6773    2.8200   52.4477 C.ar    1  ZINC000274267583   -0.7200
      7 S7         -7.4114    4.0141   52.1719 S.o2    1  ZINC000274267583    2.7000
      8 O8         -8.0309    5.1111   51.5144 O.2     1  ZINC000274267583   -0.9500
      9 O9         -6.7054    4.1413   53.3985 O.2     1  ZINC000274267583   -0.9500
     10 N10        -6.3472    3.3584   51.0856 N.am    1  ZINC000274267583   -1.1100
     11 C11        -5.6446    2.1140   51.4084 C.3     1  ZINC000274267583    0.2100
     12 H12        -5.7779    1.8862   52.4659 H       1  ZINC000274267583    0.1000
     13 C13        -6.2175    0.9723   50.5652 C.3     1  ZINC000274267583   -0.1800
     14 C14        -5.2860   -0.2393   50.6977 C.3     1  ZINC000274267583    0.0600
     15 O15        -4.0229    0.0987   50.1230 O.3     1  ZINC000274267583   -0.3100
     16 C16        -3.4476    1.2716   50.4990 C.ar    1  ZINC000274267583    0.1100
     17 C17        -2.0906    1.4522   50.2536 C.ar    1  ZINC000274267583   -0.1100
     18 C18        -1.4686    2.6298   50.6150 C.ar    1  ZINC000274267583   -0.1600
     19 C19        -2.1990    3.6383   51.2254 C.ar    1  ZINC000274267583    0.0900
     20 O20        -1.5902    4.8012   51.5805 O.3     1  ZINC000274267583   -0.3200
     21 C21        -0.3111    4.6981   52.2094 C.3     1  ZINC000274267583    0.0300
     22 C22        -3.5507    3.4587   51.4725 C.ar    1  ZINC000274267583   -0.1000
     23 C23        -4.1753    2.2761   51.1115 C.ar    1  ZINC000274267583   -0.1400
     24 C24        -9.7843    2.7839   51.6201 C.ar    1  ZINC000274267583    0.0200
     25 C25       -10.7759    1.8455   51.8314 C.ar    1  ZINC000274267583   -0.1700
     26 H26       -13.2397    0.9893   52.2093 H       1  ZINC000274267583    0.0600
     27 H27       -12.3734   -0.1688   51.1716 H       1  ZINC000274267583    0.0600
     28 H28       -13.4456   -0.7604   52.4634 H       1  ZINC000274267583    0.1100
     29 H29        -9.4627    0.2812   54.5255 H       1  ZINC000274267583    0.1400
     30 H30        -7.6959    1.9501   54.1361 H       1  ZINC000274267583    0.1400
     31 H31        -6.1889    3.7983   50.2357 H       1  ZINC000274267583    0.4200
     32 H32        -7.2124    0.7121   50.9265 H       1  ZINC000274267583    0.1000
     33 H33        -6.2741    1.2795   49.5209 H       1  ZINC000274267583    0.0900
     34 H34        -5.1552   -0.4883   51.7509 H       1  ZINC000274267583    0.0700
     35 H35        -5.7139   -1.0909   50.1690 H       1  ZINC000274267583    0.1200
     36 H36        -1.5211    0.6673   49.7783 H       1  ZINC000274267583    0.1400
     37 H37        -0.4145    2.7656   50.4232 H       1  ZINC000274267583    0.1400
     38 H38        -0.4045    4.1232   53.1307 H       1  ZINC000274267583    0.0600
     39 H39         0.3849    4.1964   51.5370 H       1  ZINC000274267583    0.0600
     40 H40         0.0618    5.6960   52.4400 H       1  ZINC000274267583    0.1000
     41 H41        -4.1194    4.2440   51.9481 H       1  ZINC000274267583    0.1300
     42 H42        -9.8721    3.4875   50.8055 H       1  ZINC000274267583    0.1500
     43 H43       -11.6403    1.8177   51.1847 H       1  ZINC000274267583    0.1400
@<TRIPOS>BOND
     1     1     2    1
     2     1    26    1
     3     1    27    1
     4     1    28    1
     5     2     3    1
     6     3    25   ar
     7     3     4   ar
     8     4     5   ar
     9     4    29    1
    10     5     6   ar
    11     5    30    1
    12     6     7    1
    13     6    24   ar
    14     7     8    2
    15     7     9    2
    16     7    10   am
    17    10    11    1
    18    10    31    1
    19    11    12    1
    20    11    23    1
    21    11    13    1
    22    13    14    1
    23    13    32    1
    24    13    33    1
    25    14    15    1
    26    14    34    1
    27    14    35    1
    28    15    16    1
    29    16    23   ar
    30    16    17   ar
    31    17    18   ar
    32    17    36    1
    33    18    19   ar
    34    18    37    1
    35    19    20    1
    36    19    22   ar
    37    20    21    1
    38    21    38    1
    39    21    39    1
    40    21    40    1
    41    22    23   ar
    42    22    41    1
    43    24    25   ar
    44    24    42    1
    45    25    43    1
@<TRIPOS>SUBSTRUCTURE
     1 ZINC000274267583        1 TEMP              0 ****  ****    0 ROOT


##########                                Name:    ZINC000768148687
##########                DOCK_Rotatable_Bonds:                   8
##########                         Heavy_Atoms:                  25
##########                    Molecular_Weight:             371.307
##########                DOCK_Rotatable_Bonds:                   8
##########                       Formal_Charge:         2.98023e-08
##########                     HBond_Acceptors:                  11
##########                        HBond_Donors:                   0
##########                         Heavy_Atoms:                  25
##########                          Grid_Score:          -28.933298
##########                     Grid_vdw_energy:          -28.737236
##########                      Grid_es_energy:           -0.196061
##########           Internal_energy_repulsive:            8.606506

@<TRIPOS>MOLECULE
ZINC000768148687
 43 44 1 0 0
SMALL
USER_CHARGES


@<TRIPOS>ATOM
      1 C1         -0.7972    1.8856   47.6832 C.3     1  ZINC000768148687   -0.1800
      2 C2         -0.6861    1.4798   49.1541 C.3     1  ZINC000768148687    0.1100
      3 N3         -1.9598    1.7390   49.8298 N.pl3   1  ZINC000768148687   -0.3100
      4 N4         -3.1029    0.9353   49.7556 N.2     1  ZINC000768148687   -0.2000
      5 C5         -4.0446    1.4714   50.4816 C.2     1  ZINC000768148687    0.0200
      6 C6         -5.4353    0.9235   50.6735 C.3     1  ZINC000768148687    0.5500
      7 F7         -5.4431   -0.4434   50.3757 F       1  ZINC000768148687   -0.1600
      8 F8         -5.8323    1.1136   52.0014 F       1  ZINC000768148687   -0.1600
      9 F9         -6.3214    1.5914   49.8216 F       1  ZINC000768148687   -0.1500
     10 C10        -3.5321    2.6565   51.0566 C.2     1  ZINC000768148687   -0.1800
     11 C11        -4.2545    3.5790   51.9491 C.2     1  ZINC000768148687    0.5300
     12 O12        -5.0171    4.4026   51.4834 O.2     1  ZINC000768148687   -0.4700
     13 O13        -4.0699    3.5097   53.2822 O.3     1  ZINC000768148687   -0.3400
     14 C14        -4.4340    4.6805   54.0598 C.3     1  ZINC000768148687    0.0200
     15 C15        -4.0746    4.4490   55.5289 C.3     1  ZINC000768148687    0.0600
     16 N16        -2.7597    3.7996   55.6148 N.3     1  ZINC000768148687   -0.5300
     17 C17        -2.5513    3.2056   56.9433 C.3     1  ZINC000768148687    0.0100
     18 C18        -1.1980    2.4901   56.9700 C.3     1  ZINC000768148687    0.0600
     19 O19        -0.1667    3.4186   56.6243 O.3     1  ZINC000768148687   -0.3800
     20 C20        -0.3378    4.0157   55.3361 C.3     1  ZINC000768148687    0.0600
     21 C21        -1.6823    4.7467   55.2929 C.3     1  ZINC000768148687    0.0100
     22 C22        -2.2249    2.7843   50.6291 C.2     1  ZINC000768148687    0.0600
     23 C23        -1.2744    3.8979   50.9860 C.3     1  ZINC000768148687    0.3400
     24 F24        -0.2358    3.3900   51.7738 F       1  ZINC000768148687   -0.1700
     25 F25        -0.7441    4.4515   49.8158 F       1  ZINC000768148687   -0.1800
     26 H26         0.1506    1.6927   47.1805 H       1  ZINC000768148687    0.0900
     27 H27        -1.5867    1.3057   47.2049 H       1  ZINC000768148687    0.0700
     28 H28        -1.0346    2.9472   47.6160 H       1  ZINC000768148687    0.0700
     29 H29        -0.4487    0.4181   49.2213 H       1  ZINC000768148687    0.1100
     30 H30         0.1034    2.0596   49.6324 H       1  ZINC000768148687    0.1200
     31 H31        -3.8915    5.5485   53.6854 H       1  ZINC000768148687    0.0800
     32 H32        -5.5061    4.8562   53.9715 H       1  ZINC000768148687    0.0800
     33 H33        -4.0419    5.4057   56.0501 H       1  ZINC000768148687    0.1100
     34 H34        -4.8266    3.8093   55.9905 H       1  ZINC000768148687    0.0900
     35 H35        -2.5627    3.9910   57.6990 H       1  ZINC000768148687    0.0500
     36 H36        -3.3461    2.4889   57.1503 H       1  ZINC000768148687    0.0900
     37 H37        -1.0138    2.0971   57.9698 H       1  ZINC000768148687    0.1000
     38 H38        -1.2056    1.6704   56.2516 H       1  ZINC000768148687    0.0600
     39 H39         0.4686    4.7261   55.1542 H       1  ZINC000768148687    0.1000
     40 H40        -0.3204    3.2404   54.5702 H       1  ZINC000768148687    0.0600
     41 H41        -1.8427    5.1550   54.2951 H       1  ZINC000768148687    0.0800
     42 H42        -1.6798    5.5568   56.0222 H       1  ZINC000768148687    0.0700
     43 H43        -1.8091    4.6678   51.5422 H       1  ZINC000768148687    0.1500
@<TRIPOS>BOND
     1     1     2    1
     2     1    26    1
     3     1    27    1
     4     1    28    1
     5     2     3    1
     6     2    29    1
     7     2    30    1
     8     3    22    1
     9     3     4    1
    10     4     5    2
    11     5     6    1
    12     5    10    1
    13     6     7    1
    14     6     8    1
    15     6     9    1
    16    10    11    1
    17    10    22    2
    18    11    12    2
    19    11    13    1
    20    13    14    1
    21    14    15    1
    22    14    31    1
    23    14    32    1
    24    15    16    1
    25    15    33    1
    26    15    34    1
    27    16    21    1
    28    16    17    1
    29    17    18    1
    30    17    35    1
    31    17    36    1
    32    18    19    1
    33    18    37    1
    34    18    38    1
    35    19    20    1
    36    20    21    1
    37    20    39    1
    38    20    40    1
    39    21    41    1
    40    21    42    1
    41    22    23    1
    42    23    24    1
    43    23    25    1
    44    23    43    1
@<TRIPOS>SUBSTRUCTURE
     1 ZINC000768148687        1 TEMP              0 ****  ****    0 ROOT


##########                                Name:    ZINC000163855860
##########                DOCK_Rotatable_Bonds:                   6
##########                         Heavy_Atoms:                  28
##########                    Molecular_Weight:             398.483
##########                DOCK_Rotatable_Bonds:                   6
##########                       Formal_Charge:          -0.0100004
##########                     HBond_Acceptors:                   7
##########                        HBond_Donors:                   1
##########                         Heavy_Atoms:                  28
##########                          Grid_Score:          -28.929743
##########                     Grid_vdw_energy:          -27.624283
##########                      Grid_es_energy:           -1.305459
##########           Internal_energy_repulsive:           16.109781

@<TRIPOS>MOLECULE
ZINC000163855860
 50 53 1 0 0
SMALL
USER_CHARGES


@<TRIPOS>ATOM
      1 C1         -7.5440    3.1615   56.0891 C.3     1  ZINC000163855860   -0.1300
      2 C2         -8.9067    2.6221   55.7380 C.ar    1  ZINC000163855860   -0.0600
      3 C3         -9.5289    1.7078   56.5734 C.ar    1  ZINC000163855860    0.1400
      4 N4         -8.8920    1.2844   57.7454 N.am    1  ZINC000163855860   -0.6700
      5 C5         -8.6745   -0.0288   57.9576 C.2     1  ZINC000163855860    0.5100
      6 O6         -9.0307   -0.8434   57.1327 O.2     1  ZINC000163855860   -0.5100
      7 C7         -7.9886   -0.4846   59.2196 C.3     1  ZINC000163855860   -0.1300
      8 C8         -8.6417    0.1905   60.4273 C.3     1  ZINC000163855860   -0.1100
      9 H9         -8.5308    1.2736   60.3751 H       1  ZINC000163855860    0.1100
     10 C10       -10.1315   -0.2056   60.5405 C.3     1  ZINC000163855860    0.0600
     11 O11       -10.3823   -0.2716   61.9756 O.3     1  ZINC000163855860   -0.3500
     12 C12        -9.2641   -0.6381   62.6180 C.2     1  ZINC000163855860    0.4800
     13 O13        -9.2252   -1.1187   63.7258 O.2     1  ZINC000163855860   -0.4500
     14 C14        -8.0579   -0.3595   61.7477 C.3     1  ZINC000163855860   -0.1800
     15 C15       -10.7881    1.2158   56.2500 C.ar    1  ZINC000163855860   -0.1100
     16 C16       -11.4217    1.6315   55.0943 C.ar    1  ZINC000163855860   -0.1100
     17 C17       -10.8084    2.5381   54.2533 C.ar    1  ZINC000163855860   -0.1000
     18 C18        -9.5439    3.0377   54.5688 C.ar    1  ZINC000163855860   -0.1100
     19 C19        -8.8848    4.0094   53.6700 C.2     1  ZINC000163855860    0.5700
     20 O20        -8.8497    5.1870   53.9691 O.2     1  ZINC000163855860   -0.5300
     21 N21        -8.3231    3.5894   52.5192 N.am    1  ZINC000163855860   -0.6100
     22 C22        -7.6627    4.5391   51.6111 C.3     1  ZINC000163855860    0.1200
     23 C23        -6.1664    4.1932   51.5557 C.3     1  ZINC000163855860   -0.0600
     24 C24        -6.0111    2.6966   51.3888 C.2     1  ZINC000163855860   -0.1700
     25 C25        -6.9687    1.7854   51.6454 C.2     1  ZINC000163855860   -0.1300
     26 C26        -6.5688    0.4719   51.4209 C.2     1  ZINC000163855860   -0.1200
     27 C27        -5.3215    0.3161   50.9884 C.2     1  ZINC000163855860   -0.2100
     28 S28        -4.5500    1.8875   50.8363 S.3     1  ZINC000163855860    0.1100
     29 C29        -8.3596    2.1710   52.1358 C.3     1  ZINC000163855860    0.1700
     30 H30        -6.7788    2.5731   55.5826 H       1  ZINC000163855860    0.0700
     31 H31        -7.4720    4.2016   55.7714 H       1  ZINC000163855860    0.0900
     32 H32        -7.3955    3.0997   57.1672 H       1  ZINC000163855860    0.0700
     33 H33        -8.6070    1.9360   58.4051 H       1  ZINC000163855860    0.4100
     34 H34        -6.9337   -0.2133   59.1781 H       1  ZINC000163855860    0.1100
     35 H35        -8.0821   -1.5665   59.3135 H       1  ZINC000163855860    0.1100
     36 H36       -10.3030   -1.1781   60.0790 H       1  ZINC000163855860    0.0800
     37 H37       -10.7633    0.5529   60.0783 H       1  ZINC000163855860    0.1200
     38 H38        -7.4149    0.3849   62.2173 H       1  ZINC000163855860    0.1200
     39 H39        -7.5027   -1.2792   61.5630 H       1  ZINC000163855860    0.1200
     40 H40       -11.2730    0.5065   56.9043 H       1  ZINC000163855860    0.1500
     41 H41       -12.4001    1.2461   54.8485 H       1  ZINC000163855860    0.1300
     42 H42       -11.3068    2.8605   53.3510 H       1  ZINC000163855860    0.1300
     43 H43        -8.0970    4.4555   50.6149 H       1  ZINC000163855860    0.0800
     44 H44        -7.7924    5.5545   51.9859 H       1  ZINC000163855860    0.1000
     45 H45        -5.6828    4.5091   52.4801 H       1  ZINC000163855860    0.0900
     46 H46        -5.7054    4.7040   50.7103 H       1  ZINC000163855860    0.0900
     47 H47        -7.2287   -0.3667   51.5873 H       1  ZINC000163855860    0.1400
     48 H48        -4.8540   -0.6313   50.7642 H       1  ZINC000163855860    0.1700
     49 H49        -8.6287    1.5621   52.9989 H       1  ZINC000163855860    0.1000
     50 H50        -9.0875    2.0227   51.3382 H       1  ZINC000163855860    0.0900
@<TRIPOS>BOND
     1     1     2    1
     2     1    30    1
     3     1    31    1
     4     1    32    1
     5     2    18   ar
     6     2     3   ar
     7     3     4    1
     8     3    15   ar
     9     4     5   am
    10     4    33    1
    11     5     6    2
    12     5     7    1
    13     7     8    1
    14     7    34    1
    15     7    35    1
    16     8     9    1
    17     8    14    1
    18     8    10    1
    19    10    11    1
    20    10    36    1
    21    10    37    1
    22    11    12    1
    23    12    13    2
    24    12    14    1
    25    14    38    1
    26    14    39    1
    27    15    16   ar
    28    15    40    1
    29    16    17   ar
    30    16    41    1
    31    17    18   ar
    32    17    42    1
    33    18    19    1
    34    19    20    2
    35    19    21   am
    36    21    29    1
    37    21    22    1
    38    22    23    1
    39    22    43    1
    40    22    44    1
    41    23    24    1
    42    23    45    1
    43    23    46    1
    44    24    28    1
    45    24    25    2
    46    25    26    1
    47    25    29    1
    48    26    27    2
    49    26    47    1
    50    27    28    1
    51    27    48    1
    52    29    49    1
    53    29    50    1
@<TRIPOS>SUBSTRUCTURE
     1 ZINC000163855860        1 TEMP              0 ****  ****    0 ROOT


##########                                Name:    ZINC000302023461
##########                DOCK_Rotatable_Bonds:                   3
##########                         Heavy_Atoms:                  25
##########                    Molecular_Weight:             356.362
##########                DOCK_Rotatable_Bonds:                   3
##########                       Formal_Charge:        -2.08616e-07
##########                     HBond_Acceptors:                   9
##########                        HBond_Donors:                   1
##########                         Heavy_Atoms:                  25
##########                          Grid_Score:          -28.929573
##########                     Grid_vdw_energy:          -28.671881
##########                      Grid_es_energy:           -0.257693
##########           Internal_energy_repulsive:           20.955666

@<TRIPOS>MOLECULE
ZINC000302023461
 37 40 1 0 0
SMALL
USER_CHARGES


@<TRIPOS>ATOM
      1 O1          3.0429    0.1237   50.0605 O.2     1  ZINC000302023461   -0.1600
      2 N2          2.2557    1.0292   50.2705 N.pl3   1  ZINC000302023461    0.0200
      3 O3          2.3236    1.6673   51.3057 O.2     1  ZINC000302023461   -0.1300
      4 C4          1.2204    1.3579   49.2648 C.ar    1  ZINC000302023461    0.0000
      5 C5          1.1427    0.6352   48.0910 C.ar    1  ZINC000302023461   -0.0600
      6 C6          0.1756    0.9416   47.1508 C.ar    1  ZINC000302023461   -0.0900
      7 C7         -0.7169    1.9722   47.3826 C.ar    1  ZINC000302023461   -0.0800
      8 C8         -0.6451    2.6994   48.5545 C.ar    1  ZINC000302023461   -0.0500
      9 C9          0.3217    2.3910   49.5035 C.ar    1  ZINC000302023461   -0.1100
     10 S10         0.4167    3.3157   51.0003 S.3     1  ZINC000302023461    0.1900
     11 C11        -1.2640    3.3984   51.5225 C.2     1  ZINC000302023461    0.2100
     12 N12        -1.7906    4.3581   52.2479 N.2     1  ZINC000302023461   -0.3200
     13 N13        -3.1444    4.0349   52.4342 N.pl3   1  ZINC000302023461   -0.4700
     14 C14        -3.3498    2.8649   51.7882 C.2     1  ZINC000302023461    0.3500
     15 C15        -4.6304    2.1301   51.7053 C.ar    1  ZINC000302023461   -0.0400
     16 C16        -4.6729    0.8619   51.1254 C.ar    1  ZINC000302023461   -0.0900
     17 C17        -5.8687    0.1795   51.0477 C.ar    1  ZINC000302023461   -0.1100
     18 C18        -7.0332    0.7496   51.5447 C.ar    1  ZINC000302023461    0.0800
     19 O19        -8.2035    0.0618   51.4497 O.3     1  ZINC000302023461   -0.3000
     20 C20        -9.2780    0.4999   52.2881 C.3     1  ZINC000302023461    0.0200
     21 C21        -9.3737    2.0282   52.1882 C.3     1  ZINC000302023461    0.0200
     22 O22        -8.1284    2.5844   52.6236 O.3     1  ZINC000302023461   -0.3000
     23 C23        -6.9966    2.0133   52.1273 C.ar    1  ZINC000302023461    0.0500
     24 C24        -5.7987    2.7007   52.2120 C.ar    1  ZINC000302023461   -0.0500
     25 N25        -2.2083    2.4984   51.2398 N.2     1  ZINC000302023461   -0.5000
     26 H26         1.8381   -0.1703   47.9067 H       1  ZINC000302023461    0.1600
     27 H27         0.1175    0.3750   46.2332 H       1  ZINC000302023461    0.1500
     28 H28        -1.4707    2.2087   46.6463 H       1  ZINC000302023461    0.1500
     29 H29        -1.3420    3.5046   48.7346 H       1  ZINC000302023461    0.1600
     30 H30        -3.8019    4.5491   52.9286 H       1  ZINC000302023461    0.4400
     31 H31        -3.7696    0.4148   50.7371 H       1  ZINC000302023461    0.1300
     32 H32        -5.8997   -0.8021   50.5983 H       1  ZINC000302023461    0.1500
     33 H33       -10.2126    0.0504   51.9526 H       1  ZINC000302023461    0.1300
     34 H34        -9.0802    0.2107   53.3203 H       1  ZINC000302023461    0.0800
     35 H35        -9.5643    2.3179   51.1548 H       1  ZINC000302023461    0.0800
     36 H36       -10.1805    2.3886   52.8264 H       1  ZINC000302023461    0.1300
     37 H37        -5.7687    3.6802   52.6661 H       1  ZINC000302023461    0.1600
@<TRIPOS>BOND
     1     1     2    2
     2     2     3    2
     3     2     4    1
     4     4     9   ar
     5     4     5   ar
     6     5     6   ar
     7     5    26    1
     8     6     7   ar
     9     6    27    1
    10     7     8   ar
    11     7    28    1
    12     8     9   ar
    13     8    29    1
    14     9    10    1
    15    10    11    1
    16    11    25    1
    17    11    12    2
    18    12    13    1
    19    13    14    1
    20    13    30    1
    21    14    15    1
    22    14    25    2
    23    15    24   ar
    24    15    16   ar
    25    16    17   ar
    26    16    31    1
    27    17    18   ar
    28    17    32    1
    29    18    23   ar
    30    18    19    1
    31    19    20    1
    32    20    21    1
    33    20    33    1
    34    20    34    1
    35    21    22    1
    36    21    35    1
    37    21    36    1
    38    22    23    1
    39    23    24   ar
    40    24    37    1
@<TRIPOS>SUBSTRUCTURE
     1 ZINC000302023461        1 TEMP              0 ****  ****    0 ROOT


##########                                Name:    ZINC000931749147
##########                DOCK_Rotatable_Bonds:                   5
##########                         Heavy_Atoms:                  25
##########                    Molecular_Weight:             354.397
##########                DOCK_Rotatable_Bonds:                   5
##########                       Formal_Charge:        -4.76837e-07
##########                     HBond_Acceptors:                   7
##########                        HBond_Donors:                   1
##########                         Heavy_Atoms:                  25
##########                          Grid_Score:          -28.889236
##########                     Grid_vdw_energy:          -28.314724
##########                      Grid_es_energy:           -0.574513
##########           Internal_energy_repulsive:           83.895233

@<TRIPOS>MOLECULE
ZINC000931749147
 49 51 1 0 0
SMALL
USER_CHARGES


@<TRIPOS>ATOM
      1 C1         -3.6560    4.3447   52.1351 C.3     1  ZINC000931749147   -0.1100
      2 C2         -4.4942    3.2274   51.5694 C.ar    1  ZINC000931749147   -0.1300
      3 C3         -3.8841    2.0822   51.0766 C.ar    1  ZINC000931749147    0.1800
      4 N4         -2.4889    1.9637   51.1049 N.am    1  ZINC000931749147   -0.6800
      5 C5         -1.7916    1.9338   49.9519 C.2     1  ZINC000931749147    0.7100
      6 O6         -2.3738    2.0096   48.8871 O.2     1  ZINC000931749147   -0.5500
      7 N7         -0.4489    1.8198   49.9792 N.am    1  ZINC000931749147   -0.6200
      8 C8          0.2776    1.7265   51.2554 C.3     1  ZINC000931749147    0.0700
      9 C9          1.4115    2.7582   51.2428 C.3     1  ZINC000931749147    0.0500
     10 O10         2.1893    2.5881   50.0554 O.3     1  ZINC000931749147   -0.3700
     11 C11         1.4647    2.8131   48.8437 C.3     1  ZINC000931749147    0.0500
     12 C12         0.3333    1.7787   48.7334 C.3     1  ZINC000931749147    0.1300
     13 H13         0.7572    0.7845   48.5923 H       1  ZINC000931749147    0.0900
     14 C14        -0.5694    2.1268   47.5481 C.3     1  ZINC000931749147   -0.1100
     15 C15         0.2876    2.3307   46.2971 C.3     1  ZINC000931749147   -0.1000
     16 C16         0.9628    1.0092   45.9176 C.3     1  ZINC000931749147   -0.1500
     17 C17         1.7542    1.2033   44.6216 C.3     1  ZINC000931749147    0.0600
     18 O18         0.8747    1.6595   43.5917 O.3     1  ZINC000931749147   -0.3800
     19 C19         0.2509    2.9145   43.8707 C.3     1  ZINC000931749147    0.0600
     20 C20        -0.6009    2.7891   45.1365 C.3     1  ZINC000931749147   -0.1500
     21 C21        -4.6585    1.0540   50.5558 C.ar    1  ZINC000931749147   -0.1200
     22 C22        -6.0345    1.1714   50.5286 C.ar    1  ZINC000931749147   -0.1100
     23 C23        -6.6430    2.3134   51.0201 C.ar    1  ZINC000931749147    0.0500
     24 F24        -7.9891    2.4260   50.9926 F       1  ZINC000931749147   -0.1300
     25 C25        -5.8728    3.3395   51.5461 C.ar    1  ZINC000931749147    0.0900
     26 F26        -6.4681    4.4535   52.0254 F       1  ZINC000931749147   -0.1200
     27 H27        -3.5050    4.1813   53.2021 H       1  ZINC000931749147    0.0800
     28 H28        -2.6902    4.3657   51.6304 H       1  ZINC000931749147    0.0700
     29 H29        -4.1667    5.2955   51.9819 H       1  ZINC000931749147    0.0800
     30 H30        -2.0243    1.9032   51.9543 H       1  ZINC000931749147    0.4100
     31 H31        -0.4019    1.9380   52.0809 H       1  ZINC000931749147    0.0800
     32 H32         0.6935    0.7254   51.3688 H       1  ZINC000931749147    0.0900
     33 H33         0.9895    3.7630   51.2608 H       1  ZINC000931749147    0.0600
     34 H34         2.0455    2.6130   52.1174 H       1  ZINC000931749147    0.1100
     35 H35         1.0431    3.8182   48.8531 H       1  ZINC000931749147    0.0600
     36 H36         2.1372    2.7075   47.9924 H       1  ZINC000931749147    0.1100
     37 H37        -1.2743    1.3133   47.3770 H       1  ZINC000931749147    0.1100
     38 H38        -1.1180    3.0431   47.7660 H       1  ZINC000931749147    0.0700
     39 H39         1.0476    3.0865   46.4950 H       1  ZINC000931749147    0.0700
     40 H40         1.6397    0.7038   46.7154 H       1  ZINC000931749147    0.0700
     41 H41         0.2033    0.2415   45.7691 H       1  ZINC000931749147    0.0700
     42 H42         2.5396    1.9419   44.7823 H       1  ZINC000931749147    0.0500
     43 H43         2.2021    0.2552   44.3236 H       1  ZINC000931749147    0.0900
     44 H44         1.0166    3.6754   44.0216 H       1  ZINC000931749147    0.0500
     45 H45        -0.3843    3.1991   43.0318 H       1  ZINC000931749147    0.0900
     46 H46        -1.3919    2.0574   44.9723 H       1  ZINC000931749147    0.0700
     47 H47        -1.0423    3.7566   45.3758 H       1  ZINC000931749147    0.0700
     48 H48        -4.1849    0.1626   50.1717 H       1  ZINC000931749147    0.1800
     49 H49        -6.6363    0.3714   50.1232 H       1  ZINC000931749147    0.1500
@<TRIPOS>BOND
     1     1     2    1
     2     1    27    1
     3     1    28    1
     4     1    29    1
     5     2    25   ar
     6     2     3   ar
     7     3     4    1
     8     3    21   ar
     9     4     5   am
    10     4    30    1
    11     5     6    2
    12     5     7   am
    13     7    12    1
    14     7     8    1
    15     8     9    1
    16     8    31    1
    17     8    32    1
    18     9    10    1
    19     9    33    1
    20     9    34    1
    21    10    11    1
    22    11    12    1
    23    11    35    1
    24    11    36    1
    25    12    13    1
    26    12    14    1
    27    14    15    1
    28    14    37    1
    29    14    38    1
    30    15    20    1
    31    15    16    1
    32    15    39    1
    33    16    17    1
    34    16    40    1
    35    16    41    1
    36    17    18    1
    37    17    42    1
    38    17    43    1
    39    18    19    1
    40    19    20    1
    41    19    44    1
    42    19    45    1
    43    20    46    1
    44    20    47    1
    45    21    22   ar
    46    21    48    1
    47    22    23   ar
    48    22    49    1
    49    23    24    1
    50    23    25   ar
    51    25    26    1
@<TRIPOS>SUBSTRUCTURE
     1 ZINC000931749147        1 TEMP              0 ****  ****    0 ROOT


##########                                Name:    ZINC000482139334
##########                DOCK_Rotatable_Bonds:                   4
##########                         Heavy_Atoms:                  26
##########                    Molecular_Weight:             348.376
##########                DOCK_Rotatable_Bonds:                   4
##########                       Formal_Charge:           0.0300002
##########                     HBond_Acceptors:                   5
##########                        HBond_Donors:                   1
##########                         Heavy_Atoms:                  26
##########                          Grid_Score:          -28.878050
##########                     Grid_vdw_energy:          -27.112091
##########                      Grid_es_energy:           -1.765959
##########           Internal_energy_repulsive:           12.450225

@<TRIPOS>MOLECULE
ZINC000482139334
 43 47 1 0 0
SMALL
USER_CHARGES


@<TRIPOS>ATOM
      1 O1         -4.7378    0.7864   49.6663 O.2     1  ZINC000482139334   -0.4800
      2 C2         -4.5892    1.2271   50.7863 C.2     1  ZINC000482139334    0.5500
      3 N3         -3.3605    1.5779   51.2149 N.am    1  ZINC000482139334   -0.6100
      4 C4         -2.2658    1.4295   50.3776 C.2     1  ZINC000482139334    0.4300
      5 N5         -1.0122    1.4917   50.7468 N.2     1  ZINC000482139334   -0.4800
      6 C6         -0.2306    1.2981   49.6522 C.2     1  ZINC000482139334    0.0400
      7 C7          1.2527    1.2894   49.6220 C.ar    1  ZINC000482139334   -0.0500
      8 C8          1.9263    0.9123   48.4625 C.ar    1  ZINC000482139334   -0.0800
      9 C9          3.3066    0.9064   48.4395 C.ar    1  ZINC000482139334   -0.1300
     10 C10         4.0220    1.2734   49.5648 C.ar    1  ZINC000482139334   -0.0800
     11 C11         3.3605    1.6486   50.7201 C.ar    1  ZINC000482139334   -0.1600
     12 C12         1.9787    1.6645   50.7535 C.ar    1  ZINC000482139334    0.1300
     13 F13         1.3327    2.0310   51.8820 F       1  ZINC000482139334   -0.1200
     14 C14        -1.0554    1.1140   48.5942 C.2     1  ZINC000482139334   -0.0600
     15 O15        -2.3201    1.1927   49.0579 O.3     1  ZINC000482139334   -0.1800
     16 C16        -5.7792    1.3885   51.6967 C.3     1  ZINC000482139334   -0.1800
     17 H17        -6.2525    0.4615   52.0208 H       1  ZINC000482139334    0.1400
     18 C18        -5.7592    2.5563   52.6868 C.3     1  ZINC000482139334   -0.1200
     19 C19        -6.6795    2.5969   51.4710 C.3     1  ZINC000482139334   -0.0500
     20 C20        -6.4238    3.5756   50.3127 C.3     1  ZINC000482139334   -0.0700
     21 C21        -7.7004    4.4455   50.3321 C.3     1  ZINC000482139334   -0.0900
     22 C22        -8.7690    3.5700   50.9523 C.ar    1  ZINC000482139334   -0.0800
     23 C23       -10.1475    3.6948   50.9424 C.ar    1  ZINC000482139334   -0.1100
     24 C24       -10.9357    2.7615   51.5873 C.ar    1  ZINC000482139334   -0.1100
     25 C25       -10.3464    1.6986   52.2455 C.ar    1  ZINC000482139334   -0.1200
     26 C26        -8.9711    1.5715   52.2568 C.ar    1  ZINC000482139334   -0.1000
     27 C27        -8.1784    2.5052   51.6108 C.ar    1  ZINC000482139334   -0.0700
     28 H28        -3.2420    1.9341   52.1093 H       1  ZINC000482139334    0.4400
     29 H29         1.3695    0.6247   47.5828 H       1  ZINC000482139334    0.1300
     30 H30         3.8291    0.6141   47.5406 H       1  ZINC000482139334    0.1400
     31 H31         5.1018    1.2667   49.5414 H       1  ZINC000482139334    0.1400
     32 H32         3.9243    1.9336   51.5960 H       1  ZINC000482139334    0.1400
     33 H33        -0.7571    0.9345   47.5719 H       1  ZINC000482139334    0.2200
     34 H34        -6.2200    2.3978   53.6618 H       1  ZINC000482139334    0.1200
     35 H35        -4.8853    3.2078   52.6795 H       1  ZINC000482139334    0.1100
     36 H36        -5.5385    4.1816   50.5050 H       1  ZINC000482139334    0.0800
     37 H37        -6.3323    3.0419   49.3667 H       1  ZINC000482139334    0.0900
     38 H38        -7.5416    5.3361   50.9400 H       1  ZINC000482139334    0.0800
     39 H39        -7.9828    4.7249   49.3171 H       1  ZINC000482139334    0.0800
     40 H40       -10.6087    4.5253   50.4287 H       1  ZINC000482139334    0.1200
     41 H41       -12.0109    2.8625   51.5775 H       1  ZINC000482139334    0.1300
     42 H42       -10.9609    0.9681   52.7509 H       1  ZINC000482139334    0.1300
     43 H43        -8.5120    0.7407   52.7719 H       1  ZINC000482139334    0.1200
@<TRIPOS>BOND
     1     1     2    2
     2     2     3   am
     3     2    16    1
     4     3     4    1
     5     3    28    1
     6     4    15    1
     7     4     5    2
     8     5     6    1
     9     6     7    1
    10     6    14    2
    11     7    12   ar
    12     7     8   ar
    13     8     9   ar
    14     8    29    1
    15     9    10   ar
    16     9    30    1
    17    10    11   ar
    18    10    31    1
    19    11    12   ar
    20    11    32    1
    21    12    13    1
    22    14    15    1
    23    14    33    1
    24    16    17    1
    25    16    19    1
    26    16    18    1
    27    18    19    1
    28    18    34    1
    29    18    35    1
    30    19    27    1
    31    19    20    1
    32    20    21    1
    33    20    36    1
    34    20    37    1
    35    21    22    1
    36    21    38    1
    37    21    39    1
    38    22    27   ar
    39    22    23   ar
    40    23    24   ar
    41    23    40    1
    42    24    25   ar
    43    24    41    1
    44    25    26   ar
    45    25    42    1
    46    26    27   ar
    47    26    43    1
@<TRIPOS>SUBSTRUCTURE
     1 ZINC000482139334        1 TEMP              0 ****  ****    0 ROOT


##########                                Name:    ZINC000192150625
##########                DOCK_Rotatable_Bonds:                   5
##########                         Heavy_Atoms:                  28
##########                    Molecular_Weight:             377.443
##########                DOCK_Rotatable_Bonds:                   5
##########                       Formal_Charge:           0.0199997
##########                     HBond_Acceptors:                   6
##########                        HBond_Donors:                   1
##########                         Heavy_Atoms:                  28
##########                          Grid_Score:          -28.874388
##########                     Grid_vdw_energy:          -28.274698
##########                      Grid_es_energy:           -0.599690
##########           Internal_energy_repulsive:           10.654848

@<TRIPOS>MOLECULE
ZINC000192150625
 51 54 1 0 0
SMALL
USER_CHARGES


@<TRIPOS>ATOM
      1 C1         -1.0209    1.6442   49.5713 C.3     1  ZINC000192150625   -0.0800
      2 C2         -2.4093    1.5506   50.1498 C.2     1  ZINC000192150625    0.0400
      3 C3         -2.9315    2.4117   51.0336 C.2     1  ZINC000192150625   -0.1800
      4 C4         -2.2579    3.6247   51.6216 C.3     1  ZINC000192150625   -0.0800
      5 C5         -4.2918    1.9360   51.3138 C.ar    1  ZINC000192150625   -0.1000
      6 C6         -5.3295    2.3822   52.1297 C.ar    1  ZINC000192150625   -0.0700
      7 C7         -6.5218    1.6796   52.1631 C.ar    1  ZINC000192150625    0.1200
      8 N8         -7.5692    2.1201   52.9789 N.am    1  ZINC000192150625   -0.6400
      9 C9         -8.5033    2.9559   52.4836 C.2     1  ZINC000192150625    0.5100
     10 O10        -8.4358    3.3263   51.3297 O.2     1  ZINC000192150625   -0.4900
     11 C11        -9.6217    3.4262   53.3546 C.2     1  ZINC000192150625    0.5100
     12 O12        -9.4877    4.4282   54.0261 O.2     1  ZINC000192150625   -0.5200
     13 N13       -10.7798    2.7379   53.3947 N.am    1  ZINC000192150625   -0.5800
     14 C14       -10.9548    1.5198   52.5921 C.3     1  ZINC000192150625    0.0500
     15 C15       -11.4002    0.3810   53.5149 C.3     1  ZINC000192150625   -0.1200
     16 C16       -12.6512    0.8124   54.2838 C.3     1  ZINC000192150625   -0.0500
     17 C17       -13.1120   -0.3180   55.1676 C.ar    1  ZINC000192150625   -0.0300
     18 C18       -12.2042   -1.0413   55.9258 C.ar    1  ZINC000192150625   -0.1700
     19 C19       -12.6637   -2.0713   56.7248 C.ar    1  ZINC000192150625    0.1000
     20 N20       -13.9477   -2.3684   56.7701 N.ar    1  ZINC000192150625   -0.4900
     21 C21       -14.8391   -1.7020   56.0627 C.ar    1  ZINC000192150625    0.1000
     22 C22       -14.4545   -0.6556   55.2460 C.ar    1  ZINC000192150625   -0.1700
     23 C23       -12.3260    2.0340   55.1462 C.3     1  ZINC000192150625   -0.1200
     24 C24       -11.8890    3.1881   54.2466 C.3     1  ZINC000192150625    0.1100
     25 C25        -6.6803    0.5344   51.3851 C.ar    1  ZINC000192150625   -0.1100
     26 C26        -5.6583    0.0884   50.5766 C.ar    1  ZINC000192150625   -0.0800
     27 C27        -4.4548    0.7809   50.5304 C.ar    1  ZINC000192150625    0.0500
     28 O28        -3.3052    0.5944   49.8493 O.3     1  ZINC000192150625   -0.1900
     29 H29        -0.8603    0.8197   48.8767 H       1  ZINC000192150625    0.0800
     30 H30        -0.9105    2.5911   49.0430 H       1  ZINC000192150625    0.0900
     31 H31        -0.2876    1.5895   50.3759 H       1  ZINC000192150625    0.0900
     32 H32        -2.4554    4.4915   50.9908 H       1  ZINC000192150625    0.0700
     33 H33        -2.6482    3.8075   52.6228 H       1  ZINC000192150625    0.0700
     34 H34        -1.1830    3.4526   51.6765 H       1  ZINC000192150625    0.0700
     35 H35        -5.2043    3.2698   52.7322 H       1  ZINC000192150625    0.1400
     36 H36        -7.6233    1.8240   53.9010 H       1  ZINC000192150625    0.4300
     37 H37       -11.7149    1.6906   51.8296 H       1  ZINC000192150625    0.0700
     38 H38       -10.0100    1.2565   52.1166 H       1  ZINC000192150625    0.1600
     39 H39       -11.6263   -0.5031   52.9188 H       1  ZINC000192150625    0.0800
     40 H40       -10.6014    0.1505   54.2199 H       1  ZINC000192150625    0.0700
     41 H41       -13.4416    1.0667   53.5776 H       1  ZINC000192150625    0.0900
     42 H42       -11.1514   -0.8032   55.8924 H       1  ZINC000192150625    0.1300
     43 H43       -11.9631   -2.6395   57.3185 H       1  ZINC000192150625    0.1600
     44 H44       -15.8822   -1.9746   56.1255 H       1  ZINC000192150625    0.1600
     45 H45       -15.1893   -0.1134   54.6693 H       1  ZINC000192150625    0.1300
     46 H46       -13.2112    2.3265   55.7113 H       1  ZINC000192150625    0.0800
     47 H47       -11.5186    1.7879   55.8359 H       1  ZINC000192150625    0.0700
     48 H48       -11.5623    4.0270   54.8611 H       1  ZINC000192150625    0.1000
     49 H49       -12.7235    3.4968   53.6170 H       1  ZINC000192150625    0.0800
     50 H50        -7.6133   -0.0088   51.4168 H       1  ZINC000192150625    0.1400
     51 H51        -5.7925   -0.8004   49.9779 H       1  ZINC000192150625    0.1400
@<TRIPOS>BOND
     1     1     2    1
     2     1    29    1
     3     1    30    1
     4     1    31    1
     5     2    28    1
     6     2     3    2
     7     3     4    1
     8     3     5    1
     9     4    32    1
    10     4    33    1
    11     4    34    1
    12     5    27   ar
    13     5     6   ar
    14     6     7   ar
    15     6    35    1
    16     7     8    1
    17     7    25   ar
    18     8     9   am
    19     8    36    1
    20     9    10    2
    21     9    11    1
    22    11    12    2
    23    11    13   am
    24    13    24    1
    25    13    14    1
    26    14    15    1
    27    14    37    1
    28    14    38    1
    29    15    16    1
    30    15    39    1
    31    15    40    1
    32    16    17    1
    33    16    23    1
    34    16    41    1
    35    17    22   ar
    36    17    18   ar
    37    18    19   ar
    38    18    42    1
    39    19    20   ar
    40    19    43    1
    41    20    21   ar
    42    21    22   ar
    43    21    44    1
    44    22    45    1
    45    23    24    1
    46    23    46    1
    47    23    47    1
    48    24    48    1
    49    24    49    1
    50    25    26   ar
    51    25    50    1
    52    26    27   ar
    53    26    51    1
    54    27    28    1
@<TRIPOS>SUBSTRUCTURE
     1 ZINC000192150625        1 TEMP              0 ****  ****    0 ROOT


##########                                Name:    ZINC001345266033
##########                DOCK_Rotatable_Bonds:                   4
##########                         Heavy_Atoms:                  29
##########                    Molecular_Weight:               389.5
##########                DOCK_Rotatable_Bonds:                   4
##########                       Formal_Charge:          -0.0100001
##########                     HBond_Acceptors:                   6
##########                        HBond_Donors:                   0
##########                         Heavy_Atoms:                  29
##########                          Grid_Score:          -28.845528
##########                     Grid_vdw_energy:          -29.619886
##########                      Grid_es_energy:            0.774360
##########           Internal_energy_repulsive:           21.089981

@<TRIPOS>MOLECULE
ZINC001345266033
 56 61 1 0 0
SMALL
USER_CHARGES


@<TRIPOS>ATOM
      1 C1         -6.8018    4.4607   50.7334 C.ar    1  ZINC001345266033   -0.1100
      2 C2         -5.5128    4.8825   51.0492 C.ar    1  ZINC001345266033   -0.0900
      3 C3         -4.4743    3.9980   51.0861 C.ar    1  ZINC001345266033   -0.1100
      4 C4         -4.7100    2.6506   50.8029 C.ar    1  ZINC001345266033    0.0000
      5 C5         -6.0216    2.2164   50.4811 C.ar    1  ZINC001345266033   -0.1100
      6 C6         -7.0657    3.1538   50.4522 C.ar    1  ZINC001345266033   -0.0900
      7 C7         -6.2307    0.8562   50.2012 C.ar    1  ZINC001345266033    0.1700
      8 N8         -5.2372    0.0012   50.2353 N.ar    1  ZINC001345266033   -0.4800
      9 C9         -3.9912    0.3352   50.5272 C.ar    1  ZINC001345266033    0.0900
     10 C10        -3.6461    1.6474   50.8240 C.ar    1  ZINC001345266033   -0.0700
     11 C11        -2.2552    2.0162   51.1490 C.2     1  ZINC001345266033    0.2300
     12 N12        -1.8480    2.6647   52.2168 N.2     1  ZINC001345266033   -0.2600
     13 N13        -0.5723    2.8149   52.1778 N.2     1  ZINC001345266033   -0.3000
     14 C14        -0.0868    2.2723   51.0838 C.2     1  ZINC001345266033    0.3600
     15 N15         1.2434    2.2408   50.7044 N.3     1  ZINC001345266033   -0.4600
     16 C16         1.6992    3.5680   50.2739 C.3     1  ZINC001345266033    0.0600
     17 C17         3.0945    3.4639   49.6549 C.3     1  ZINC001345266033   -0.1100
     18 C18         4.0800    2.9583   50.7152 C.3     1  ZINC001345266033   -0.0800
     19 C19         3.5379    1.6490   51.2983 C.3     1  ZINC001345266033   -0.1300
     20 C20         4.0220    0.3399   50.6769 C.3     1  ZINC001345266033   -0.1600
     21 C21         4.5100    0.7554   52.0666 C.3     1  ZINC001345266033   -0.1700
     22 C22         2.0878    1.7139   51.7868 C.3     1  ZINC001345266033    0.1100
     23 N23        -1.1377    1.7408   50.3941 N.pl3   1  ZINC001345266033   -0.4600
     24 C24        -1.0878    1.0321   49.1128 C.3     1  ZINC001345266033    0.1000
     25 C25        -0.2322    1.8264   48.1238 C.3     1  ZINC001345266033   -0.1400
     26 H26         0.7570    2.0140   48.5414 H       1  ZINC001345266033    0.1000
     27 C27        -0.9268    3.1603   47.7561 C.3     1  ZINC001345266033   -0.1500
     28 C28        -0.6455    3.2643   46.2354 C.3     1  ZINC001345266033    0.0500
     29 O29        -0.7436    1.8975   45.7805 O.3     1  ZINC001345266033   -0.3700
     30 C30        -0.1183    1.0743   46.7838 C.3     1  ZINC001345266033    0.0300
     31 H31        -7.6066    5.1807   50.7153 H       1  ZINC001345266033    0.1300
     32 H32        -5.3323    5.9246   51.2679 H       1  ZINC001345266033    0.1300
     33 H33        -3.4787    4.3369   51.3317 H       1  ZINC001345266033    0.1600
     34 H34        -8.0707    2.8416   50.2095 H       1  ZINC001345266033    0.1400
     35 H35        -7.2234    0.5097   49.9548 H       1  ZINC001345266033    0.1700
     36 H36        -3.2268   -0.4277   50.5352 H       1  ZINC001345266033    0.1700
     37 H37         1.0043    3.9675   49.5353 H       1  ZINC001345266033    0.0700
     38 H38         1.7339    4.2357   51.1347 H       1  ZINC001345266033    0.0500
     39 H39         3.0705    2.7661   48.8179 H       1  ZINC001345266033    0.0800
     40 H40         3.4108    4.4457   49.3026 H       1  ZINC001345266033    0.0800
     41 H41         5.0523    2.7797   50.2560 H       1  ZINC001345266033    0.0700
     42 H42         4.1770    3.6998   51.5082 H       1  ZINC001345266033    0.0700
     43 H43         3.3099   -0.4834   50.6188 H       1  ZINC001345266033    0.0900
     44 H44         4.7328    0.4063   49.8532 H       1  ZINC001345266033    0.0900
     45 H45         5.5417    1.0952   52.1572 H       1  ZINC001345266033    0.1000
     46 H46         4.1189    0.2056   52.9227 H       1  ZINC001345266033    0.1000
     47 H47         2.0236    2.3721   52.6532 H       1  ZINC001345266033    0.0600
     48 H48         1.7497    0.7142   52.0599 H       1  ZINC001345266033    0.0800
     49 H49        -0.6501    0.0448   49.2604 H       1  ZINC001345266033    0.1100
     50 H50        -2.0975    0.9264   48.7164 H       1  ZINC001345266033    0.1100
     51 H51        -1.9979    3.1077   47.9509 H       1  ZINC001345266033    0.0800
     52 H52        -0.4756    3.9948   48.2930 H       1  ZINC001345266033    0.0900
     53 H53        -1.3965    3.8860   45.7478 H       1  ZINC001345266033    0.1000
     54 H54         0.3551    3.6576   46.0561 H       1  ZINC001345266033    0.0600
     55 H55         0.9303    0.9159   46.5322 H       1  ZINC001345266033    0.0600
     56 H56        -0.6341    0.1165   46.8515 H       1  ZINC001345266033    0.0900
@<TRIPOS>BOND
     1     1     6   ar
     2     1     2   ar
     3     1    31    1
     4     2     3   ar
     5     2    32    1
     6     3     4   ar
     7     3    33    1
     8     4    10   ar
     9     4     5   ar
    10     5     6   ar
    11     5     7   ar
    12     6    34    1
    13     7     8   ar
    14     7    35    1
    15     8     9   ar
    16     9    10   ar
    17     9    36    1
    18    10    11    1
    19    11    23    1
    20    11    12    2
    21    12    13    1
    22    13    14    2
    23    14    15    1
    24    14    23    1
    25    15    22    1
    26    15    16    1
    27    16    17    1
    28    16    37    1
    29    16    38    1
    30    17    18    1
    31    17    39    1
    32    17    40    1
    33    18    19    1
    34    18    41    1
    35    18    42    1
    36    19    21    1
    37    19    20    1
    38    19    22    1
    39    20    21    1
    40    20    43    1
    41    20    44    1
    42    21    45    1
    43    21    46    1
    44    22    47    1
    45    22    48    1
    46    23    24    1
    47    24    25    1
    48    24    49    1
    49    24    50    1
    50    25    26    1
    51    25    30    1
    52    25    27    1
    53    27    28    1
    54    27    51    1
    55    27    52    1
    56    28    29    1
    57    28    53    1
    58    28    54    1
    59    29    30    1
    60    30    55    1
    61    30    56    1
@<TRIPOS>SUBSTRUCTURE
     1 ZINC001345266033        1 TEMP              0 ****  ****    0 ROOT


##########                                Name:    ZINC000245764166
##########                DOCK_Rotatable_Bonds:                   8
##########                         Heavy_Atoms:                  26
##########                    Molecular_Weight:             359.512
##########                DOCK_Rotatable_Bonds:                   8
##########                       Formal_Charge:          -0.0100008
##########                     HBond_Acceptors:                   5
##########                        HBond_Donors:                   2
##########                         Heavy_Atoms:                  26
##########                          Grid_Score:          -28.822252
##########                     Grid_vdw_energy:          -27.240019
##########                      Grid_es_energy:           -1.582234
##########           Internal_energy_repulsive:           29.854383

@<TRIPOS>MOLECULE
ZINC000245764166
 59 61 1 0 0
SMALL
USER_CHARGES


@<TRIPOS>ATOM
      1 C1         -8.6446    2.4990   52.5042 C.3     1  ZINC000245764166    0.0200
      2 N2         -7.2487    2.9198   52.3246 N.3     1  ZINC000245764166   -0.5300
      3 C3         -6.8829    3.9591   53.2962 C.3     1  ZINC000245764166    0.0600
      4 C4         -6.5334    5.2297   52.5649 C.ar    1  ZINC000245764166   -0.0800
      5 C5         -5.3329    5.8659   52.8199 C.ar    1  ZINC000245764166   -0.1000
      6 C6         -5.0123    7.0313   52.1493 C.ar    1  ZINC000245764166   -0.1200
      7 C7         -5.8918    7.5603   51.2232 C.ar    1  ZINC000245764166   -0.1200
      8 C8         -7.0919    6.9235   50.9675 C.ar    1  ZINC000245764166   -0.1200
      9 C9         -7.4106    5.7558   51.6352 C.ar    1  ZINC000245764166   -0.1200
     10 C10        -6.3371    1.7713   52.4140 C.3     1  ZINC000245764166    0.0500
     11 C11        -5.5618    1.6323   51.1023 C.3     1  ZINC000245764166    0.1900
     12 C12        -5.6383    0.1838   50.6157 C.3     1  ZINC000245764166   -0.1600
     13 C13        -6.1728    2.5575   50.0481 C.3     1  ZINC000245764166   -0.1500
     14 N14        -4.1608    2.0002   51.3219 N.am    1  ZINC000245764166   -0.7400
     15 C15        -3.2884    1.9746   50.2949 C.2     1  ZINC000245764166    0.7000
     16 O16        -3.6637    1.6448   49.1865 O.2     1  ZINC000245764166   -0.5800
     17 N17        -1.9999    2.3147   50.4966 N.am    1  ZINC000245764166   -0.7500
     18 C18        -1.0513    2.2851   49.3806 C.3     1  ZINC000245764166    0.1800
     19 H19        -1.5736    2.5417   48.4589 H       1  ZINC000245764166    0.0900
     20 C20        -0.4686    0.8798   49.2535 C.3     1  ZINC000245764166   -0.1300
     21 C21         0.4750    0.8490   48.0461 C.3     1  ZINC000245764166   -0.1100
     22 C22         1.6343    1.8077   48.3169 C.3     1  ZINC000245764166   -0.1100
     23 C23         1.1413    3.2174   48.5446 C.3     1  ZINC000245764166    0.0900
     24 H24         1.9810    3.8424   48.8487 H       1  ZINC000245764166    0.0600
     25 O25         0.5297    3.7932   47.3825 O.3     1  ZINC000245764166   -0.3600
     26 C26        -0.1957    4.9507   47.8425 C.3     1  ZINC000245764166    0.0500
     27 C27        -0.5540    4.7092   49.3229 C.3     1  ZINC000245764166   -0.1500
     28 C28         0.0563    3.3101   49.6338 C.3     1  ZINC000245764166   -0.1300
     29 H29         0.4694    3.2472   50.6405 H       1  ZINC000245764166    0.1000
     30 H30        -9.2996    3.3659   52.4163 H       1  ZINC000245764166    0.0800
     31 H31        -8.9051    1.7678   51.7391 H       1  ZINC000245764166    0.0700
     32 H32        -8.7651    2.0512   53.4908 H       1  ZINC000245764166    0.0200
     33 H33        -7.7241    4.1442   53.9642 H       1  ZINC000245764166    0.0400
     34 H34        -6.0233    3.6264   53.8778 H       1  ZINC000245764166    0.1100
     35 H35        -4.6458    5.4526   53.5433 H       1  ZINC000245764166    0.1200
     36 H36        -4.0747    7.5289   52.3489 H       1  ZINC000245764166    0.1200
     37 H37        -5.6416    8.4712   50.6998 H       1  ZINC000245764166    0.1200
     38 H38        -7.7792    7.3369   50.2443 H       1  ZINC000245764166    0.1200
     39 H39        -8.3482    5.2583   51.4354 H       1  ZINC000245764166    0.1200
     40 H40        -5.6372    1.9260   53.2352 H       1  ZINC000245764166    0.0400
     41 H41        -6.9130    0.8634   52.5936 H       1  ZINC000245764166    0.1000
     42 H42        -6.6807   -0.0899   50.4523 H       1  ZINC000245764166    0.0700
     43 H43        -5.0859    0.0847   49.6812 H       1  ZINC000245764166    0.0800
     44 H44        -5.2030   -0.4754   51.3667 H       1  ZINC000245764166    0.0500
     45 H45        -6.0086    3.5957   50.3368 H       1  ZINC000245764166    0.0600
     46 H46        -5.7018    2.3699   49.0832 H       1  ZINC000245764166    0.0800
     47 H47        -7.2432    2.3661   49.9733 H       1  ZINC000245764166    0.0600
     48 H48        -3.8610    2.2623   52.2065 H       1  ZINC000245764166    0.3900
     49 H49        -1.7007    2.5790   51.3806 H       1  ZINC000245764166    0.3900
     50 H50         0.0862    0.6307   50.1580 H       1  ZINC000245764166    0.0600
     51 H51        -1.2749    0.1614   49.1060 H       1  ZINC000245764166    0.0700
     52 H52         0.8592   -0.1614   47.9059 H       1  ZINC000245764166    0.0700
     53 H53        -0.0621    1.1655   47.1520 H       1  ZINC000245764166    0.0700
     54 H54         2.1757    1.4720   49.2014 H       1  ZINC000245764166    0.0800
     55 H55         2.3105    1.8002   47.4620 H       1  ZINC000245764166    0.0700
     56 H56         0.4292    5.8393   47.7528 H       1  ZINC000245764166    0.0600
     57 H57        -1.1061    5.0748   47.2562 H       1  ZINC000245764166    0.0800
     58 H58        -0.1011    5.4726   49.9555 H       1  ZINC000245764166    0.0800
     59 H59        -1.6356    4.6928   49.4568 H       1  ZINC000245764166    0.0800
@<TRIPOS>BOND
     1     1     2    1
     2     1    30    1
     3     1    31    1
     4     1    32    1
     5     2     3    1
     6     2    10    1
     7     3     4    1
     8     3    33    1
     9     3    34    1
    10     4     9   ar
    11     4     5   ar
    12     5     6   ar
    13     5    35    1
    14     6     7   ar
    15     6    36    1
    16     7     8   ar
    17     7    37    1
    18     8     9   ar
    19     8    38    1
    20     9    39    1
    21    10    11    1
    22    10    40    1
    23    10    41    1
    24    11    12    1
    25    11    13    1
    26    11    14    1
    27    12    42    1
    28    12    43    1
    29    12    44    1
    30    13    45    1
    31    13    46    1
    32    13    47    1
    33    14    15   am
    34    14    48    1
    35    15    16    2
    36    15    17   am
    37    17    18    1
    38    17    49    1
    39    18    19    1
    40    18    28    1
    41    18    20    1
    42    20    21    1
    43    20    50    1
    44    20    51    1
    45    21    22    1
    46    21    52    1
    47    21    53    1
    48    22    23    1
    49    22    54    1
    50    22    55    1
    51    23    24    1
    52    23    28    1
    53    23    25    1
    54    25    26    1
    55    26    27    1
    56    26    56    1
    57    26    57    1
    58    27    28    1
    59    27    58    1
    60    27    59    1
    61    28    29    1
@<TRIPOS>SUBSTRUCTURE
     1 ZINC000245764166        1 TEMP              0 ****  ****    0 ROOT


##########                                Name:    ZINC000479580180
##########                DOCK_Rotatable_Bonds:                   5
##########                         Heavy_Atoms:                  30
##########                    Molecular_Weight:             404.444
##########                DOCK_Rotatable_Bonds:                   5
##########                       Formal_Charge:           0.0299995
##########                     HBond_Acceptors:                   7
##########                        HBond_Donors:                   1
##########                         Heavy_Atoms:                  30
##########                          Grid_Score:          -28.803816
##########                     Grid_vdw_energy:          -28.408255
##########                      Grid_es_energy:           -0.395561
##########           Internal_energy_repulsive:           18.178352

@<TRIPOS>MOLECULE
ZINC000479580180
 51 55 1 0 0
SMALL
USER_CHARGES


@<TRIPOS>ATOM
      1 O1         -7.1416    4.2802   52.7574 O.2     1  ZINC000479580180   -0.5200
      2 C2         -7.4341    3.2724   52.1494 C.2     1  ZINC000479580180    0.5200
      3 C3         -7.0627    3.1351   50.6953 C.3     1  ZINC000479580180   -0.0700
      4 C4         -5.8792    2.2114   50.5642 C.2     1  ZINC000479580180   -0.1600
      5 C5         -5.8987    0.9292   50.1764 C.2     1  ZINC000479580180    0.0300
      6 O6         -4.6518    0.4251   50.1792 O.3     1  ZINC000479580180   -0.1900
      7 C7         -3.7580    1.3556   50.5696 C.ar    1  ZINC000479580180    0.0800
      8 C8         -2.3793    1.3454   50.7373 C.ar    1  ZINC000479580180   -0.1400
      9 C9         -1.7311    2.4886   51.1612 C.ar    1  ZINC000479580180    0.1300
     10 F10        -0.3898    2.4763   51.3231 F       1  ZINC000479580180   -0.1300
     11 C11        -2.4447    3.6514   51.4224 C.ar    1  ZINC000479580180   -0.1600
     12 C12        -3.8027    3.6801   51.2633 C.ar    1  ZINC000479580180   -0.0400
     13 C13        -4.4725    2.5375   50.8296 C.ar    1  ZINC000479580180   -0.1200
     14 N14        -8.0863    2.2729   52.7755 N.am    1  ZINC000479580180   -0.6200
     15 C15        -8.4603    2.3943   54.1911 C.3     1  ZINC000479580180    0.1100
     16 C16        -9.9617    2.1232   54.3293 C.3     1  ZINC000479580180   -0.1300
     17 C17       -10.2902    0.7643   53.7067 C.3     1  ZINC000479580180   -0.0100
     18 C18       -11.7608    0.4791   53.8712 C.2     1  ZINC000479580180    0.3000
     19 N19       -12.2917   -0.3125   54.7651 N.2     1  ZINC000479580180   -0.5300
     20 C20       -13.6236   -0.3298   54.6217 C.2     1  ZINC000479580180    0.2700
     21 C21       -14.5731   -1.1113   55.4526 C.ar    1  ZINC000479580180   -0.0200
     22 C22       -15.9415   -1.0463   55.1986 C.ar    1  ZINC000479580180   -0.0800
     23 C23       -16.8200   -1.7755   55.9741 C.ar    1  ZINC000479580180   -0.1300
     24 C24       -16.3443   -2.5693   57.0021 C.ar    1  ZINC000479580180   -0.1000
     25 C25       -14.9868   -2.6373   57.2586 C.ar    1  ZINC000479580180   -0.1200
     26 C26       -14.0988   -1.9169   56.4857 C.ar    1  ZINC000479580180   -0.0800
     27 N27       -13.9503    0.4609   53.6231 N.2     1  ZINC000479580180   -0.3000
     28 N28       -12.7525    1.0001   53.1265 N.pl3   1  ZINC000479580180   -0.4800
     29 C29        -9.9382    0.7852   52.2174 C.3     1  ZINC000479580180   -0.1400
     30 C30        -8.4419    1.0435   52.0538 C.3     1  ZINC000479580180    0.1200
     31 H31        -7.9071    2.7244   50.1417 H       1  ZINC000479580180    0.1100
     32 H32        -6.8055    4.1145   50.2919 H       1  ZINC000479580180    0.1100
     33 H33        -6.7869    0.3799   49.9013 H       1  ZINC000479580180    0.2100
     34 H34        -1.8160    0.4459   50.5370 H       1  ZINC000479580180    0.1500
     35 H35        -1.9241    4.5379   51.7533 H       1  ZINC000479580180    0.1400
     36 H36        -4.3534    4.5863   51.4682 H       1  ZINC000479580180    0.1300
     37 H37        -7.9019    1.6668   54.7803 H       1  ZINC000479580180    0.0800
     38 H38        -8.2368    3.4013   54.5430 H       1  ZINC000479580180    0.0900
     39 H39       -10.2343    2.1154   55.3847 H       1  ZINC000479580180    0.0900
     40 H40       -10.5213    2.9042   53.8144 H       1  ZINC000479580180    0.0700
     41 H41        -9.7115   -0.0131   54.2056 H       1  ZINC000479580180    0.1200
     42 H42       -16.3141   -0.4263   54.3966 H       1  ZINC000479580180    0.1400
     43 H43       -17.8809   -1.7260   55.7781 H       1  ZINC000479580180    0.1300
     44 H44       -17.0353   -3.1377   57.6070 H       1  ZINC000479580180    0.1300
     45 H45       -14.6207   -3.2584   58.0628 H       1  ZINC000479580180    0.1300
     46 H46       -13.0390   -1.9710   56.6866 H       1  ZINC000479580180    0.1300
     47 H47       -12.6583    1.6216   52.3876 H       1  ZINC000479580180    0.4400
     48 H48       -10.1942   -0.1750   51.7698 H       1  ZINC000479580180    0.0900
     49 H49       -10.4981    1.5787   51.7224 H       1  ZINC000479580180    0.0700
     50 H50        -8.2045    1.1575   50.9959 H       1  ZINC000479580180    0.1000
     51 H51        -7.8792    0.2073   52.4686 H       1  ZINC000479580180    0.0800
@<TRIPOS>BOND
     1     1     2    2
     2     2     3    1
     3     2    14   am
     4     3     4    1
     5     3    31    1
     6     3    32    1
     7     4    13    1
     8     4     5    2
     9     5     6    1
    10     5    33    1
    11     6     7    1
    12     7    13   ar
    13     7     8   ar
    14     8     9   ar
    15     8    34    1
    16     9    10    1
    17     9    11   ar
    18    11    12   ar
    19    11    35    1
    20    12    13   ar
    21    12    36    1
    22    14    30    1
    23    14    15    1
    24    15    16    1
    25    15    37    1
    26    15    38    1
    27    16    17    1
    28    16    39    1
    29    16    40    1
    30    17    18    1
    31    17    29    1
    32    17    41    1
    33    18    28    1
    34    18    19    2
    35    19    20    1
    36    20    21    1
    37    20    27    2
    38    21    26   ar
    39    21    22   ar
    40    22    23   ar
    41    22    42    1
    42    23    24   ar
    43    23    43    1
    44    24    25   ar
    45    24    44    1
    46    25    26   ar
    47    25    45    1
    48    26    46    1
    49    27    28    1
    50    28    47    1
    51    29    30    1
    52    29    48    1
    53    29    49    1
    54    30    50    1
    55    30    51    1
@<TRIPOS>SUBSTRUCTURE
     1 ZINC000479580180        1 TEMP              0 ****  ****    0 ROOT


##########                                Name:    ZINC001011676549
##########                DOCK_Rotatable_Bonds:                   6
##########                         Heavy_Atoms:                  24
##########                    Molecular_Weight:             330.387
##########                DOCK_Rotatable_Bonds:                   6
##########                       Formal_Charge:        -1.49012e-07
##########                     HBond_Acceptors:                   7
##########                        HBond_Donors:                   1
##########                         Heavy_Atoms:                  24
##########                          Grid_Score:          -28.762068
##########                     Grid_vdw_energy:          -27.222639
##########                      Grid_es_energy:           -1.539428
##########           Internal_energy_repulsive:           20.520281

@<TRIPOS>MOLECULE
ZINC001011676549
 46 48 1 0 0
SMALL
USER_CHARGES


@<TRIPOS>ATOM
      1 C1          0.9088    2.7073   50.5780 C.3     1  ZINC001011676549   -0.1700
      2 C2          0.6775    1.4628   49.7185 C.3     1  ZINC001011676549    0.1300
      3 H3          0.8280    0.5652   50.3183 H       1  ZINC001011676549    0.0900
      4 C4         -0.7561    1.4783   49.1476 C.3     1  ZINC001011676549    0.1400
      5 H5         -1.1625    0.4682   49.0982 H       1  ZINC001011676549    0.1100
      6 N6         -1.6237    2.3455   49.9485 N.am    1  ZINC001011676549   -0.7200
      7 C7         -2.7250    1.8383   50.5372 C.2     1  ZINC001011676549    0.5200
      8 O8         -2.9984    0.6645   50.4026 O.2     1  ZINC001011676549   -0.5300
      9 C9         -3.6164    2.7300   51.3626 C.3     1  ZINC001011676549   -0.0900
     10 C10        -5.0153    2.1695   51.3743 C.ar    1  ZINC001011676549   -0.1800
     11 C11        -5.7260    2.0599   52.5592 C.ar    1  ZINC001011676549    0.1600
     12 N12        -6.9521    1.5629   52.5307 N.ar    1  ZINC001011676549   -0.5200
     13 C13        -7.4972    1.1750   51.3952 C.ar    1  ZINC001011676549    0.3000
     14 N14        -6.8517    1.2643   50.2498 N.ar    1  ZINC001011676549   -0.5200
     15 C15        -5.6242    1.7565   50.1999 C.ar    1  ZINC001011676549    0.1600
     16 C16        -0.5565    2.0599   47.7230 C.3     1  ZINC001011676549   -0.1400
     17 C17         0.8147    1.4559   47.3298 C.3     1  ZINC001011676549    0.1000
     18 N18         1.6052    1.4635   48.5779 N.am    1  ZINC001011676549   -0.6100
     19 C19         2.9507    1.4729   48.6555 C.2     1  ZINC001011676549    0.5800
     20 O20         3.6184    1.4758   47.6390 O.2     1  ZINC001011676549   -0.5300
     21 C21         3.6116    1.4797   49.9697 C.2     1  ZINC001011676549   -0.1400
     22 C22         3.5074    0.4130   50.7415 C.2     1  ZINC001011676549   -0.1500
     23 C23         4.1412    0.3334   52.1017 C.3     1  ZINC001011676549    0.0900
     24 O24         5.1184    1.3655   52.2490 O.3     1  ZINC001011676549   -0.3800
     25 C25         4.6222    2.6634   51.9004 C.3     1  ZINC001011676549    0.0600
     26 C26         4.3880    2.6989   50.3861 C.3     1  ZINC001011676549   -0.1100
     27 H27         0.7689    3.6006   49.9691 H       1  ZINC001011676549    0.0600
     28 H28         0.1977    2.7157   51.4040 H       1  ZINC001011676549    0.0700
     29 H29         1.9245    2.6924   50.9731 H       1  ZINC001011676549    0.0800
     30 H30        -1.4056    3.2845   50.0552 H       1  ZINC001011676549    0.4100
     31 H31        -3.2363    2.7794   52.3830 H       1  ZINC001011676549    0.1100
     32 H32        -3.6296    3.7307   50.9308 H       1  ZINC001011676549    0.1100
     33 H33        -5.2850    2.3756   53.4932 H       1  ZINC001011676549    0.1700
     34 H34        -8.4996    0.7730   51.4038 H       1  ZINC001011676549    0.2000
     35 H35        -5.1009    1.8273   49.2577 H       1  ZINC001011676549    0.1700
     36 H36        -1.3416    1.7188   47.0482 H       1  ZINC001011676549    0.0900
     37 H37        -0.5110    3.1486   47.7483 H       1  ZINC001011676549    0.0800
     38 H38         0.6899    0.4353   46.9677 H       1  ZINC001011676549    0.0800
     39 H39         1.2972    2.0721   46.5711 H       1  ZINC001011676549    0.0800
     40 H40         2.9444   -0.4353   50.3811 H       1  ZINC001011676549    0.1200
     41 H41         3.3730    0.4513   52.8659 H       1  ZINC001011676549    0.0700
     42 H42         4.6208   -0.6382   52.2208 H       1  ZINC001011676549    0.1100
     43 H43         3.6847    2.8501   52.4242 H       1  ZINC001011676549    0.0600
     44 H44         5.3556    3.4218   52.1744 H       1  ZINC001011676549    0.1000
     45 H45         5.3481    2.7188   49.8706 H       1  ZINC001011676549    0.0900
     46 H46         3.8189    3.5919   50.1275 H       1  ZINC001011676549    0.0900
@<TRIPOS>BOND
     1     1     2    1
     2     1    27    1
     3     1    28    1
     4     1    29    1
     5     2     3    1
     6     2    18    1
     7     2     4    1
     8     4     5    1
     9     4     6    1
    10     4    16    1
    11     6     7   am
    12     6    30    1
    13     7     8    2
    14     7     9    1
    15     9    10    1
    16     9    31    1
    17     9    32    1
    18    10    15   ar
    19    10    11   ar
    20    11    12   ar
    21    11    33    1
    22    12    13   ar
    23    13    14   ar
    24    13    34    1
    25    14    15   ar
    26    15    35    1
    27    16    17    1
    28    16    36    1
    29    16    37    1
    30    17    18    1
    31    17    38    1
    32    17    39    1
    33    18    19   am
    34    19    20    2
    35    19    21    1
    36    21    26    1
    37    21    22    2
    38    22    23    1
    39    22    40    1
    40    23    24    1
    41    23    41    1
    42    23    42    1
    43    24    25    1
    44    25    26    1
    45    25    43    1
    46    25    44    1
    47    26    45    1
    48    26    46    1
@<TRIPOS>SUBSTRUCTURE
     1 ZINC001011676549        1 TEMP              0 ****  ****    0 ROOT


##########                                Name:    ZINC000588570917
##########                DOCK_Rotatable_Bonds:                   7
##########                         Heavy_Atoms:                  25
##########                    Molecular_Weight:             366.481
##########                DOCK_Rotatable_Bonds:                   7
##########                       Formal_Charge:          -0.0100006
##########                     HBond_Acceptors:                   7
##########                        HBond_Donors:                   1
##########                         Heavy_Atoms:                  25
##########                          Grid_Score:          -28.741642
##########                     Grid_vdw_energy:          -26.499949
##########                      Grid_es_energy:           -2.241694
##########           Internal_energy_repulsive:           12.563454

@<TRIPOS>MOLECULE
ZINC000588570917
 51 52 1 0 0
SMALL
USER_CHARGES


@<TRIPOS>ATOM
      1 C1         -7.2777    0.3432   50.9950 C.3     1  ZINC000588570917   -0.1300
      2 C2         -7.5437    1.3924   52.0434 C.2     1  ZINC000588570917   -0.0500
      3 C3         -6.6905    2.3996   52.2079 C.2     1  ZINC000588570917   -0.2000
      4 C4         -6.9574    3.4499   53.2551 C.3     1  ZINC000588570917   -0.0900
      5 C5         -5.6348    4.0849   53.6891 C.3     1  ZINC000588570917   -0.1500
      6 C6         -5.4867    2.4882   51.3678 C.2     1  ZINC000588570917    0.5600
      7 O7         -5.5637    2.9384   50.2405 O.2     1  ZINC000588570917   -0.5100
      8 N8         -4.2983    2.0704   51.8468 N.am    1  ZINC000588570917   -0.6800
      9 C9         -3.1537    2.1547   51.0481 C.ar    1  ZINC000588570917    0.2100
     10 C10        -2.6596    1.0199   50.4179 C.ar    1  ZINC000588570917   -0.1700
     11 C11        -1.5292    1.1067   49.6292 C.ar    1  ZINC000588570917    0.0000
     12 C12        -0.8893    2.3217   49.4667 C.ar    1  ZINC000588570917   -0.7000
     13 S13         0.5526    2.4281   48.4596 S.o2    1  ZINC000588570917    2.6900
     14 O14         1.3540    3.4622   49.0142 O.2     1  ZINC000588570917   -0.9500
     15 O15         1.0161    1.0968   48.2807 O.2     1  ZINC000588570917   -0.9500
     16 N16         0.0701    2.9597   46.9672 N.am    1  ZINC000588570917   -1.0000
     17 C17         0.5992    4.2108   46.4014 C.3     1  ZINC000588570917    0.0900
     18 C18         1.1016    3.9248   44.9816 C.3     1  ZINC000588570917    0.0700
     19 H19         1.9756    3.2751   45.0286 H       1  ZINC000588570917    0.0700
     20 C20         1.4794    5.2406   44.2984 C.3     1  ZINC000588570917   -0.1500
     21 O21         0.0661    3.2792   44.2369 O.3     1  ZINC000588570917   -0.3700
     22 C22        -0.3243    2.0070   44.7594 C.3     1  ZINC000588570917    0.0800
     23 H23        -1.0820    1.5648   44.1125 H       1  ZINC000588570917    0.1200
     24 C24         0.8948    1.0847   44.8230 C.3     1  ZINC000588570917   -0.1900
     25 C25        -0.8955    2.1919   46.1653 C.3     1  ZINC000588570917    0.0900
     26 C26        -1.3789    3.4536   50.0923 C.ar    1  ZINC000588570917    0.0000
     27 C27        -2.5116    3.3746   50.8784 C.ar    1  ZINC000588570917   -0.1400
     28 H28        -8.0794   -0.3952   51.0082 H       1  ZINC000588570917    0.0600
     29 H29        -7.2335    0.8139   50.0128 H       1  ZINC000588570917    0.0800
     30 H30        -6.3277   -0.1482   51.2054 H       1  ZINC000588570917    0.0800
     31 H31        -8.4270    1.3266   52.6613 H       1  ZINC000588570917    0.1300
     32 H32        -7.6107    4.2179   52.8413 H       1  ZINC000588570917    0.0700
     33 H33        -7.4392    2.9889   54.1174 H       1  ZINC000588570917    0.0800
     34 H34        -5.1530    4.5459   52.8269 H       1  ZINC000588570917    0.0500
     35 H35        -5.8278    4.8446   54.4466 H       1  ZINC000588570917    0.0600
     36 H36        -4.9814    3.3169   54.1030 H       1  ZINC000588570917    0.0600
     37 H37        -4.2369    1.7114   52.7458 H       1  ZINC000588570917    0.4100
     38 H38        -3.1587    0.0705   50.5447 H       1  ZINC000588570917    0.1400
     39 H39        -1.1444    0.2245   49.1391 H       1  ZINC000588570917    0.1400
     40 H40        -0.1907    4.9611   46.3670 H       1  ZINC000588570917    0.0900
     41 H41         1.4232    4.5724   47.0164 H       1  ZINC000588570917    0.1000
     42 H42         2.2662    5.7337   44.8694 H       1  ZINC000588570917    0.0700
     43 H43         1.8367    5.0366   43.2890 H       1  ZINC000588570917    0.0700
     44 H44         0.6047    5.8893   44.2501 H       1  ZINC000588570917    0.0700
     45 H45         1.6513    1.5268   45.4715 H       1  ZINC000588570917    0.0600
     46 H46         0.5963    0.1150   45.2214 H       1  ZINC000588570917    0.0700
     47 H47         1.3053    0.9554   43.8216 H       1  ZINC000588570917    0.0700
     48 H48        -1.0637    1.2176   46.6243 H       1  ZINC000588570917    0.1000
     49 H49        -1.8364    2.7396   46.1103 H       1  ZINC000588570917    0.0900
     50 H50        -0.8768    4.4011   49.9633 H       1  ZINC000588570917    0.1400
     51 H51        -2.8937    4.2591   51.3665 H       1  ZINC000588570917    0.1500
@<TRIPOS>BOND
     1     1     2    1
     2     1    28    1
     3     1    29    1
     4     1    30    1
     5     2     3    2
     6     2    31    1
     7     3     4    1
     8     3     6    1
     9     4     5    1
    10     4    32    1
    11     4    33    1
    12     5    34    1
    13     5    35    1
    14     5    36    1
    15     6     7    2
    16     6     8   am
    17     8     9    1
    18     8    37    1
    19     9    27   ar
    20     9    10   ar
    21    10    11   ar
    22    10    38    1
    23    11    12   ar
    24    11    39    1
    25    12    13    1
    26    12    26   ar
    27    13    14    2
    28    13    15    2
    29    13    16   am
    30    16    25    1
    31    16    17    1
    32    17    18    1
    33    17    40    1
    34    17    41    1
    35    18    19    1
    36    18    20    1
    37    18    21    1
    38    20    42    1
    39    20    43    1
    40    20    44    1
    41    21    22    1
    42    22    23    1
    43    22    24    1
    44    22    25    1
    45    24    45    1
    46    24    46    1
    47    24    47    1
    48    25    48    1
    49    25    49    1
    50    26    27   ar
    51    26    50    1
    52    27    51    1
@<TRIPOS>SUBSTRUCTURE
     1 ZINC000588570917        1 TEMP              0 ****  ****    0 ROOT


##########                                Name:    ZINC001173835973
##########                DOCK_Rotatable_Bonds:                   4
##########                         Heavy_Atoms:                  26
##########                    Molecular_Weight:             343.388
##########                DOCK_Rotatable_Bonds:                   4
##########                       Formal_Charge:           -0.010001
##########                     HBond_Acceptors:                   6
##########                        HBond_Donors:                   4
##########                         Heavy_Atoms:                  26
##########                          Grid_Score:          -28.737322
##########                     Grid_vdw_energy:          -27.951521
##########                      Grid_es_energy:           -0.785800
##########           Internal_energy_repulsive:           10.512617

@<TRIPOS>MOLECULE
ZINC001173835973
 43 46 1 0 0
SMALL
USER_CHARGES


@<TRIPOS>ATOM
      1 C1         -0.0350    1.7824   58.0092 C.3     1  ZINC001173835973   -0.1700
      2 C2         -0.6676    2.9824   57.3526 C.2     1  ZINC001173835973    0.5100
      3 O3         -1.4420    3.6770   57.9763 O.2     1  ZINC001173835973   -0.5200
      4 N4         -0.3729    3.2836   56.0725 N.am    1  ZINC001173835973   -0.6800
      5 C5         -0.9602    4.3977   55.4628 C.ar    1  ZINC001173835973    0.1800
      6 C6         -1.0166    5.6105   56.1377 C.ar    1  ZINC001173835973   -0.1900
      7 C7         -1.5964    6.7116   55.5366 C.ar    1  ZINC001173835973   -0.0600
      8 C8         -2.1213    6.6106   54.2630 C.ar    1  ZINC001173835973   -0.1900
      9 C9         -2.0681    5.3998   53.5820 C.ar    1  ZINC001173835973    0.2200
     10 N10        -2.5990    5.2981   52.2946 N.pl3   1  ZINC001173835973   -0.6900
     11 C11        -3.0287    4.0568   51.8108 C.ar    1  ZINC001173835973    0.0400
     12 C12        -4.2452    3.5683   52.1869 C.ar    1  ZINC001173835973    0.2400
     13 N13        -5.0542    4.3117   53.0537 N.pl3   1  ZINC001173835973   -0.8600
     14 C14        -4.7096    2.2768   51.6923 C.ar    1  ZINC001173835973   -0.1100
     15 C15        -5.9615    1.7687   52.0757 C.ar    1  ZINC001173835973   -0.0600
     16 C16        -6.3463    0.5521   51.5807 C.ar    1  ZINC001173835973   -0.1700
     17 C17        -5.5024   -0.1431   50.7227 C.ar    1  ZINC001173835973    0.1200
     18 N18        -4.3329    0.3392   50.3689 N.ar    1  ZINC001173835973   -0.4400
     19 C19        -3.9031    1.5166   50.8168 C.ar    1  ZINC001173835973    0.1900
     20 C20        -2.5941    2.0424   50.4120 C.ar    1  ZINC001173835973    0.1300
     21 N21        -1.8079    1.3531   49.5882 N.ar    1  ZINC001173835973   -0.4400
     22 C22        -0.6339    1.8117   49.2177 C.ar    1  ZINC001173835973    0.1000
     23 C23        -0.1570    3.0370   49.6674 C.ar    1  ZINC001173835973   -0.1500
     24 C24        -0.9186    3.7936   50.5167 C.ar    1  ZINC001173835973   -0.0700
     25 C25        -2.1745    3.2984   50.9032 C.ar    1  ZINC001173835973   -0.0400
     26 C26        -1.4817    4.2935   54.1812 C.ar    1  ZINC001173835973   -0.1900
     27 H27        -0.3911    1.7004   59.0361 H       1  ZINC001173835973    0.1000
     28 H28        -0.3053    0.8819   57.4579 H       1  ZINC001173835973    0.0900
     29 H29         1.0489    1.8973   58.0086 H       1  ZINC001173835973    0.0900
     30 H30         0.2465    2.7282   55.5737 H       1  ZINC001173835973    0.4100
     31 H31        -0.6071    5.6931   57.1337 H       1  ZINC001173835973    0.1200
     32 H32        -1.6395    7.6531   56.0640 H       1  ZINC001173835973    0.1200
     33 H33        -2.5738    7.4729   53.7961 H       1  ZINC001173835973    0.1200
     34 H34        -2.6700    6.0875   51.7354 H       1  ZINC001173835973    0.4000
     35 H35        -4.7865    5.2050   53.3204 H       1  ZINC001173835973    0.4100
     36 H36        -5.8827    3.9336   53.3877 H       1  ZINC001173835973    0.4000
     37 H37        -6.6036    2.3234   52.7439 H       1  ZINC001173835973    0.1400
     38 H38        -7.3029    0.1332   51.8565 H       1  ZINC001173835973    0.1400
     39 H39        -5.8155   -1.1025   50.3381 H       1  ZINC001173835973    0.1700
     40 H40        -0.0250    1.2223   48.5481 H       1  ZINC001173835973    0.1600
     41 H41         0.8119    3.3912   49.3480 H       1  ZINC001173835973    0.1400
     42 H42        -0.5645    4.7481   50.8769 H       1  ZINC001173835973    0.1400
     43 H43        -1.4387    3.3518   53.6544 H       1  ZINC001173835973    0.1400
@<TRIPOS>BOND
     1     1     2    1
     2     1    27    1
     3     1    28    1
     4     1    29    1
     5     2     3    2
     6     2     4   am
     7     4     5    1
     8     4    30    1
     9     5    26   ar
    10     5     6   ar
    11     6     7   ar
    12     6    31    1
    13     7     8   ar
    14     7    32    1
    15     8     9   ar
    16     8    33    1
    17     9    10    1
    18     9    26   ar
    19    10    11    1
    20    10    34    1
    21    11    25   ar
    22    11    12   ar
    23    12    13    1
    24    12    14   ar
    25    13    35    1
    26    13    36    1
    27    14    19   ar
    28    14    15   ar
    29    15    16   ar
    30    15    37    1
    31    16    17   ar
    32    16    38    1
    33    17    18   ar
    34    17    39    1
    35    18    19   ar
    36    19    20   ar
    37    20    25   ar
    38    20    21   ar
    39    21    22   ar
    40    22    23   ar
    41    22    40    1
    42    23    24   ar
    43    23    41    1
    44    24    25   ar
    45    24    42    1
    46    26    43    1
@<TRIPOS>SUBSTRUCTURE
     1 ZINC001173835973        1 TEMP              0 ****  ****    0 ROOT


##########                                Name:    ZINC001061022329
##########                DOCK_Rotatable_Bonds:                   7
##########                         Heavy_Atoms:                  27
##########                    Molecular_Weight:             374.523
##########                DOCK_Rotatable_Bonds:                   7
##########                       Formal_Charge:           0.0800005
##########                     HBond_Acceptors:                   5
##########                        HBond_Donors:                   0
##########                         Heavy_Atoms:                  27
##########                          Grid_Score:          -28.729704
##########                     Grid_vdw_energy:          -28.526873
##########                      Grid_es_energy:           -0.202831
##########           Internal_energy_repulsive:           24.007477

@<TRIPOS>MOLECULE
ZINC001061022329
 61 64 1 0 0
SMALL
USER_CHARGES


@<TRIPOS>ATOM
      1 C1         -7.7795    2.9312   51.9811 C.3     1  ZINC001061022329   -0.1500
      2 C2         -7.2593    1.6184   52.5702 C.3     1  ZINC001061022329   -0.1200
      3 C3         -6.1423    1.0677   51.6815 C.3     1  ZINC001061022329    0.0800
      4 H4         -5.7717    0.1325   52.1012 H       1  ZINC001061022329    0.0600
      5 C5         -6.6879    0.8145   50.2747 C.3     1  ZINC001061022329   -0.1800
      6 O6         -5.0752    2.0158   51.6151 O.3     1  ZINC001061022329   -0.3500
      7 C7         -3.9559    1.5780   50.8423 C.3     1  ZINC001061022329    0.0500
      8 C8         -2.7828    2.4894   51.0960 C.2     1  ZINC001061022329    0.5200
      9 O9         -2.8557    3.3484   51.9490 O.2     1  ZINC001061022329   -0.5100
     10 N10        -1.6528    2.3499   50.3750 N.am    1  ZINC001061022329   -0.6100
     11 C11        -0.5005    3.2274   50.6191 C.3     1  ZINC001061022329    0.1100
     12 C12        -0.1132    3.9107   49.3022 C.3     1  ZINC001061022329   -0.1200
     13 C13         0.0684    2.8474   48.2218 C.3     1  ZINC001061022329   -0.0900
     14 C14         0.6707    3.3911   46.9190 C.3     1  ZINC001061022329    0.1200
     15 N15         1.4952    2.1661   46.9108 N.am    1  ZINC001061022329   -0.6400
     16 C16         2.1215    1.4563   45.9513 C.2     1  ZINC001061022329    0.5400
     17 O17         2.7449    0.4582   46.2446 O.2     1  ZINC001061022329   -0.5300
     18 C18         2.0471    1.9031   44.5139 C.3     1  ZINC001061022329   -0.0900
     19 H19         1.3408    2.7286   44.4264 H       1  ZINC001061022329    0.1000
     20 C20         1.5789    0.7365   43.6411 C.3     1  ZINC001061022329   -0.1000
     21 C21         2.6517    0.4173   42.5920 C.3     1  ZINC001061022329   -0.0600
     22 H22         2.3609   -0.4448   41.9919 H       1  ZINC001061022329    0.0800
     23 C23         3.9566    0.1480   43.3267 C.2     1  ZINC001061022329   -0.1800
     24 C24         4.3639    1.1625   44.0858 C.2     1  ZINC001061022329   -0.1300
     25 C25         3.4342    2.3661   44.0503 C.3     1  ZINC001061022329   -0.0400
     26 H26         3.8158    3.1680   44.6822 H       1  ZINC001061022329    0.0900
     27 C27         3.3256    2.8283   42.5906 C.3     1  ZINC001061022329   -0.1100
     28 C28         2.8446    1.6564   41.7069 C.3     1  ZINC001061022329   -0.1100
     29 C29         1.3594    2.0311   48.3748 C.3     1  ZINC001061022329    0.1100
     30 C30        -1.1755    1.9884   48.0087 C.3     1  ZINC001061022329   -0.1100
     31 C31        -1.5538    1.3142   49.3382 C.3     1  ZINC001061022329    0.1100
     32 H32        -6.9655    3.6544   51.9305 H       1  ZINC001061022329    0.0500
     33 H33        -8.1681    2.7508   50.9789 H       1  ZINC001061022329    0.0600
     34 H34        -8.5753    3.3234   52.6142 H       1  ZINC001061022329    0.0600
     35 H35        -6.8707    1.7987   53.5725 H       1  ZINC001061022329    0.0800
     36 H36        -8.0733    0.8952   52.6209 H       1  ZINC001061022329    0.0700
     37 H37        -5.8921    0.4223   49.6415 H       1  ZINC001061022329    0.0600
     38 H38        -7.5018    0.0913   50.3254 H       1  ZINC001061022329    0.0700
     39 H39        -7.0584    1.7497   49.8550 H       1  ZINC001061022329    0.0700
     40 H40        -3.6931    0.5595   51.1280 H       1  ZINC001061022329    0.0800
     41 H41        -4.2133    1.6033   49.7833 H       1  ZINC001061022329    0.0800
     42 H42        -0.7667    3.9829   51.3584 H       1  ZINC001061022329    0.0900
     43 H43         0.3389    2.6355   50.9843 H       1  ZINC001061022329    0.0800
     44 H44        -0.9018    4.6017   49.0045 H       1  ZINC001061022329    0.0800
     45 H45         0.8203    4.4574   49.4361 H       1  ZINC001061022329    0.0800
     46 H46        -0.0411    3.4476   46.0955 H       1  ZINC001061022329    0.0800
     47 H47         1.2462    4.3076   47.0494 H       1  ZINC001061022329    0.0900
     48 H48         1.4104   -0.1402   44.2665 H       1  ZINC001061022329    0.0700
     49 H49         0.6501    1.0084   43.1395 H       1  ZINC001061022329    0.0700
     50 H50         4.5018   -0.7803   43.2402 H       1  ZINC001061022329    0.1200
     51 H51         5.2699    1.1338   44.6729 H       1  ZINC001061022329    0.1200
     52 H52         2.6071    3.6450   42.5209 H       1  ZINC001061022329    0.0700
     53 H53         4.3005    3.1719   42.2450 H       1  ZINC001061022329    0.0700
     54 H54         3.5952    1.4438   40.9458 H       1  ZINC001061022329    0.0700
     55 H55         1.9053    1.9271   41.2247 H       1  ZINC001061022329    0.0700
     56 H56         2.1395    2.5435   48.9379 H       1  ZINC001061022329    0.0900
     57 H57         1.1949    1.0066   48.7085 H       1  ZINC001061022329    0.0800
     58 H58        -1.9986    2.6169   47.6690 H       1  ZINC001061022329    0.0800
     59 H59        -0.9666    1.2238   47.2604 H       1  ZINC001061022329    0.0800
     60 H60        -0.7876    0.5886   49.6109 H       1  ZINC001061022329    0.0700
     61 H61        -2.5151    0.8114   49.2324 H       1  ZINC001061022329    0.1000
@<TRIPOS>BOND
     1     1     2    1
     2     1    32    1
     3     1    33    1
     4     1    34    1
     5     2     3    1
     6     2    35    1
     7     2    36    1
     8     3     4    1
     9     3     5    1
    10     3     6    1
    11     5    37    1
    12     5    38    1
    13     5    39    1
    14     6     7    1
    15     7     8    1
    16     7    40    1
    17     7    41    1
    18     8     9    2
    19     8    10   am
    20    10    31    1
    21    10    11    1
    22    11    12    1
    23    11    42    1
    24    11    43    1
    25    12    13    1
    26    12    44    1
    27    12    45    1
    28    13    29    1
    29    13    14    1
    30    13    30    1
    31    14    15    1
    32    14    46    1
    33    14    47    1
    34    15    16   am
    35    15    29    1
    36    16    17    2
    37    16    18    1
    38    18    19    1
    39    18    25    1
    40    18    20    1
    41    20    21    1
    42    20    48    1
    43    20    49    1
    44    21    22    1
    45    21    28    1
    46    21    23    1
    47    23    24    2
    48    23    50    1
    49    24    25    1
    50    24    51    1
    51    25    26    1
    52    25    27    1
    53    27    28    1
    54    27    52    1
    55    27    53    1
    56    28    54    1
    57    28    55    1
    58    29    56    1
    59    29    57    1
    60    30    31    1
    61    30    58    1
    62    30    59    1
    63    31    60    1
    64    31    61    1
@<TRIPOS>SUBSTRUCTURE
     1 ZINC001061022329        1 TEMP              0 ****  ****    0 ROOT


##########                                Name:    ZINC001076281847
##########                DOCK_Rotatable_Bonds:                   4
##########                         Heavy_Atoms:                  24
##########                    Molecular_Weight:             362.883
##########                DOCK_Rotatable_Bonds:                   4
##########                       Formal_Charge:         -0.00999959
##########                     HBond_Acceptors:                   7
##########                        HBond_Donors:                   0
##########                         Heavy_Atoms:                  24
##########                          Grid_Score:          -28.727146
##########                     Grid_vdw_energy:          -27.942301
##########                      Grid_es_energy:           -0.784846
##########           Internal_energy_repulsive:            7.527320

@<TRIPOS>MOLECULE
ZINC001076281847
 43 46 1 0 0
SMALL
USER_CHARGES


@<TRIPOS>ATOM
      1 C1         -7.2213    2.7465   51.1222 C.3     1  ZINC001076281847   -0.0900
      2 C2         -6.0967    1.7604   50.9377 C.2     1  ZINC001076281847    0.1400
      3 N3         -6.3000    0.4770   50.9967 N.2     1  ZINC001076281847   -0.4600
      4 S4         -4.8034   -0.2788   50.7409 S.3     1  ZINC001076281847    0.2500
      5 C5         -3.9062    1.1774   50.5541 C.2     1  ZINC001076281847   -0.2100
      6 C6         -2.4292    1.3107   50.2862 C.3     1  ZINC001076281847    0.1200
      7 N7         -2.2016    2.4024   49.3300 N.3     1  ZINC001076281847   -0.5000
      8 C8         -1.7566    1.8795   48.0288 C.3     1  ZINC001076281847    0.0300
      9 C9         -0.6793    2.8479   47.5048 C.3     1  ZINC001076281847   -0.1000
     10 H10        -1.0674    3.5933   46.8107 H       1  ZINC001076281847    0.1200
     11 C11         0.4862    2.0073   46.9201 C.3     1  ZINC001076281847   -0.1300
     12 C12         1.1648    1.4715   48.2048 C.3     1  ZINC001076281847    0.1000
     13 N13         1.0727    2.5812   49.1706 N.am    1  ZINC001076281847   -0.6000
     14 C14         1.8935    2.7766   50.2215 C.2     1  ZINC001076281847    0.5700
     15 O15         1.7238    3.7298   50.9560 O.2     1  ZINC001076281847   -0.4900
     16 C16         3.0020    1.8298   50.4813 C.ar    1  ZINC001076281847   -0.0800
     17 C17         2.7799    0.6360   51.1744 C.ar    1  ZINC001076281847   -0.1800
     18 C18         3.8426   -0.2187   51.3944 C.ar    1  ZINC001076281847    0.1000
     19 N19         5.0517    0.0779   50.9612 N.ar    1  ZINC001076281847   -0.4500
     20 C20         5.3059    1.1915   50.3040 C.ar    1  ZINC001076281847    0.1100
     21 C21         4.3002    2.1021   50.0347 C.ar    1  ZINC001076281847   -0.0500
     22 Cl22        4.6454    3.5660   49.1676 Cl      1  ZINC001076281847   -0.0100
     23 C23        -0.0752    3.4562   48.7993 C.3     1  ZINC001076281847    0.1000
     24 H24         0.2442    4.4885   48.6554 H       1  ZINC001076281847    0.1100
     25 C25        -1.1984    3.3491   49.8399 C.3     1  ZINC001076281847    0.0200
     26 C26        -4.8058    2.1762   50.6930 C.2     1  ZINC001076281847   -0.1800
     27 H27        -7.6234    3.0253   50.1482 H       1  ZINC001076281847    0.0700
     28 H28        -8.0084    2.2916   51.7236 H       1  ZINC001076281847    0.0800
     29 H29        -6.8455    3.6358   51.6282 H       1  ZINC001076281847    0.0900
     30 H30        -1.9092    1.5301   51.2187 H       1  ZINC001076281847    0.1000
     31 H31        -2.0499    0.3777   49.8695 H       1  ZINC001076281847    0.1000
     32 H32        -1.3333    0.8827   48.1527 H       1  ZINC001076281847    0.0600
     33 H33        -2.5960    1.8447   47.3343 H       1  ZINC001076281847    0.0900
     34 H34         0.1078    1.1886   46.3082 H       1  ZINC001076281847    0.0900
     35 H35         1.1713    2.6344   46.3495 H       1  ZINC001076281847    0.0800
     36 H36         0.6318    0.5975   48.5790 H       1  ZINC001076281847    0.0800
     37 H37         2.2082    1.2252   48.0082 H       1  ZINC001076281847    0.0800
     38 H38         1.7923    0.3860   51.5329 H       1  ZINC001076281847    0.1800
     39 H39         3.6805   -1.1429   51.9292 H       1  ZINC001076281847    0.1700
     40 H40         6.3120    1.3938   49.9675 H       1  ZINC001076281847    0.1700
     41 H41        -1.6443    4.3302   50.0033 H       1  ZINC001076281847    0.1000
     42 H42        -0.7966    2.9662   50.7780 H       1  ZINC001076281847    0.0700
     43 H43        -4.5332    3.2190   50.6243 H       1  ZINC001076281847    0.1400
@<TRIPOS>BOND
     1     1     2    1
     2     1    27    1
     3     1    28    1
     4     1    29    1
     5     2    26    1
     6     2     3    2
     7     3     4    1
     8     4     5    1
     9     5     6    1
    10     5    26    2
    11     6     7    1
    12     6    30    1
    13     6    31    1
    14     7    25    1
    15     7     8    1
    16     8     9    1
    17     8    32    1
    18     8    33    1
    19     9    10    1
    20     9    23    1
    21     9    11    1
    22    11    12    1
    23    11    34    1
    24    11    35    1
    25    12    13    1
    26    12    36    1
    27    12    37    1
    28    13    14   am
    29    13    23    1
    30    14    15    2
    31    14    16    1
    32    16    21   ar
    33    16    17   ar
    34    17    18   ar
    35    17    38    1
    36    18    19   ar
    37    18    39    1
    38    19    20   ar
    39    20    21   ar
    40    20    40    1
    41    21    22    1
    42    23    24    1
    43    23    25    1
    44    25    41    1
    45    25    42    1
    46    26    43    1
@<TRIPOS>SUBSTRUCTURE
     1 ZINC001076281847        1 TEMP              0 ****  ****    0 ROOT


##########                                Name:    ZINC001023407238
##########                DOCK_Rotatable_Bonds:                   7
##########                         Heavy_Atoms:                  25
##########                    Molecular_Weight:             349.387
##########                DOCK_Rotatable_Bonds:                   7
##########                       Formal_Charge:          -0.0300008
##########                     HBond_Acceptors:                   8
##########                        HBond_Donors:                   2
##########                         Heavy_Atoms:                  25
##########                          Grid_Score:          -28.652790
##########                     Grid_vdw_energy:          -26.511909
##########                      Grid_es_energy:           -2.140881
##########           Internal_energy_repulsive:            9.384862

@<TRIPOS>MOLECULE
ZINC001023407238
 48 50 1 0 0
SMALL
USER_CHARGES


@<TRIPOS>ATOM
      1 C1         -7.1833    6.2994   50.0885 C.3     1  ZINC001023407238   -0.0900
      2 C2         -6.5445    6.2872   51.4534 C.2     1  ZINC001023407238   -0.1100
      3 C3         -6.5052    5.2237   52.3299 C.2     1  ZINC001023407238   -0.0500
      4 C4         -7.0790    3.8928   52.1047 C.2     1  ZINC001023407238    0.6100
      5 O5         -8.2747    3.7143   52.2433 O.2     1  ZINC001023407238   -0.5100
      6 N6         -6.2819    2.8675   51.7443 N.am    1  ZINC001023407238   -0.6100
      7 C7         -6.7227    1.4886   51.4878 C.3     1  ZINC001023407238    0.0800
      8 C8         -5.4749    0.6770   51.0803 C.3     1  ZINC001023407238    0.0900
      9 H9         -5.0596    0.1507   51.9397 H       1  ZINC001023407238    0.0800
     10 O10        -5.7892   -0.2408   50.0311 O.3     1  ZINC001023407238   -0.5500
     11 C11        -4.4955    1.7723   50.5815 C.3     1  ZINC001023407238    0.1400
     12 H12        -4.7070    2.0439   49.5473 H       1  ZINC001023407238    0.1200
     13 N13        -3.1037    1.3413   50.7344 N.am    1  ZINC001023407238   -0.7200
     14 C14        -2.2516    1.4336   49.6942 C.2     1  ZINC001023407238    0.5200
     15 O15        -2.6375    1.8722   48.6314 O.2     1  ZINC001023407238   -0.5300
     16 C16        -0.8194    0.9919   49.8520 C.3     1  ZINC001023407238   -0.1300
     17 C17         0.0554    1.7248   48.8330 C.3     1  ZINC001023407238   -0.1100
     18 H18        -0.1572    2.7939   48.8391 H       1  ZINC001023407238    0.1100
     19 C19         1.5542    1.4598   49.1023 C.3     1  ZINC001023407238    0.0600
     20 O20         2.1605    1.4201   47.7766 O.3     1  ZINC001023407238   -0.3500
     21 C21         1.2737    0.9601   46.8826 C.2     1  ZINC001023407238    0.4800
     22 O22         1.5541    0.4808   45.8095 O.2     1  ZINC001023407238   -0.4600
     23 C23        -0.1352    1.1340   47.4182 C.3     1  ZINC001023407238   -0.1800
     24 C24        -4.8244    2.9444   51.5360 C.3     1  ZINC001023407238    0.1000
     25 N25        -5.8288    5.6385   53.4549 N.pl3   1  ZINC001023407238   -0.4200
     26 C26        -5.5582    4.8200   54.6394 C.3     1  ZINC001023407238    0.0700
     27 C27        -5.4551    6.9300   53.2842 C.2     1  ZINC001023407238    0.0100
     28 C28        -5.8747    7.3503   52.0669 C.2     1  ZINC001023407238   -0.2000
     29 H29        -6.4527    5.9861   49.3426 H       1  ZINC001023407238    0.0600
     30 H30        -8.0305    5.6136   50.0777 H       1  ZINC001023407238    0.0600
     31 H31        -7.5286    7.3072   49.8579 H       1  ZINC001023407238    0.0700
     32 H32        -7.1612    1.0654   52.3914 H       1  ZINC001023407238    0.0800
     33 H33        -7.4527    1.4773   50.6784 H       1  ZINC001023407238    0.0800
     34 H34        -6.7327   -0.4362   49.9489 H       1  ZINC001023407238    0.3900
     35 H35        -2.7954    0.9894   51.5841 H       1  ZINC001023407238    0.4100
     36 H36        -0.4762    1.2250   50.8599 H       1  ZINC001023407238    0.1000
     37 H37        -0.7501   -0.0829   49.6841 H       1  ZINC001023407238    0.1100
     38 H38         1.9835    2.2688   49.6932 H       1  ZINC001023407238    0.1200
     39 H39         1.6866    0.5045   49.6102 H       1  ZINC001023407238    0.0800
     40 H40        -0.6405    0.1700   47.4768 H       1  ZINC001023407238    0.1100
     41 H41        -0.6989    1.8210   46.7870 H       1  ZINC001023407238    0.1200
     42 H42        -4.5530    3.8951   51.0769 H       1  ZINC001023407238    0.0900
     43 H43        -4.3037    2.8183   52.4853 H       1  ZINC001023407238    0.0800
     44 H44        -4.5676    4.3733   54.5537 H       1  ZINC001023407238    0.0800
     45 H45        -5.5985    5.4462   55.5307 H       1  ZINC001023407238    0.0900
     46 H46        -6.3069    4.0316   54.7151 H       1  ZINC001023407238    0.0800
     47 H47        -4.9086    7.5256   54.0003 H       1  ZINC001023407238    0.1700
     48 H48        -5.7249    8.3342   51.6474 H       1  ZINC001023407238    0.1400
@<TRIPOS>BOND
     1     1     2    1
     2     1    29    1
     3     1    30    1
     4     1    31    1
     5     2    28    1
     6     2     3    2
     7     3     4    1
     8     3    25    1
     9     4     5    2
    10     4     6   am
    11     6    24    1
    12     6     7    1
    13     7     8    1
    14     7    32    1
    15     7    33    1
    16     8     9    1
    17     8    10    1
    18     8    11    1
    19    10    34    1
    20    11    12    1
    21    11    13    1
    22    11    24    1
    23    13    14   am
    24    13    35    1
    25    14    15    2
    26    14    16    1
    27    16    17    1
    28    16    36    1
    29    16    37    1
    30    17    18    1
    31    17    23    1
    32    17    19    1
    33    19    20    1
    34    19    38    1
    35    19    39    1
    36    20    21    1
    37    21    22    2
    38    21    23    1
    39    23    40    1
    40    23    41    1
    41    24    42    1
    42    24    43    1
    43    25    26    1
    44    25    27    1
    45    26    44    1
    46    26    45    1
    47    26    46    1
    48    27    28    2
    49    27    47    1
    50    28    48    1
@<TRIPOS>SUBSTRUCTURE
     1 ZINC001023407238        1 TEMP              0 ****  ****    0 ROOT


##########                                Name:    ZINC000506388363
##########                DOCK_Rotatable_Bonds:                   5
##########                         Heavy_Atoms:                  29
##########                    Molecular_Weight:             416.858
##########                DOCK_Rotatable_Bonds:                   5
##########                       Formal_Charge:         7.07805e-07
##########                     HBond_Acceptors:                   8
##########                        HBond_Donors:                   1
##########                         Heavy_Atoms:                  29
##########                          Grid_Score:          -28.645079
##########                     Grid_vdw_energy:          -27.987154
##########                      Grid_es_energy:           -0.657924
##########           Internal_energy_repulsive:           16.092957

@<TRIPOS>MOLECULE
ZINC000506388363
 48 51 1 0 0
SMALL
USER_CHARGES


@<TRIPOS>ATOM
      1 O1        -10.2816    1.5378   56.0979 O.2     1  ZINC000506388363   -0.5300
      2 C2         -9.2931    1.8904   56.7111 C.2     1  ZINC000506388363    0.5600
      3 C3         -8.9135    1.1995   57.9619 C.ar    1  ZINC000506388363   -0.1200
      4 C4         -8.8882    1.8993   59.1691 C.ar    1  ZINC000506388363   -0.0900
      5 C5         -8.5336    1.2490   60.3333 C.ar    1  ZINC000506388363   -0.1100
      6 C6         -8.2030   -0.0938   60.3061 C.ar    1  ZINC000506388363   -0.0900
      7 C7         -8.2258   -0.7946   59.1119 C.ar    1  ZINC000506388363   -0.0400
      8 Cl8        -7.8096   -2.4798   59.0882 Cl      1  ZINC000506388363   -0.0600
      9 C9         -8.5845   -0.1568   57.9411 C.ar    1  ZINC000506388363   -0.0600
     10 N10        -8.5400    2.9077   56.2479 N.am    1  ZINC000506388363   -0.6100
     11 C11        -7.3333    3.3423   56.9678 C.3     1  ZINC000506388363    0.1000
     12 C12        -6.1665    3.3934   55.9757 C.3     1  ZINC000506388363    0.0400
     13 N13        -6.5403    4.2305   54.8279 N.3     1  ZINC000506388363   -0.5300
     14 C14        -5.3920    4.4459   53.9374 C.3     1  ZINC000506388363    0.1200
     15 C15        -5.8681    5.0483   52.6406 C.2     1  ZINC000506388363   -0.2100
     16 C16        -6.4589    6.2542   52.4931 C.2     1  ZINC000506388363    0.0600
     17 N17        -6.7341    6.4261   51.1824 N.pl3   1  ZINC000506388363   -0.4700
     18 N18        -6.2990    5.2874   50.4924 N.2     1  ZINC000506388363   -0.2700
     19 C19        -5.7708    4.4566   51.3660 C.2     1  ZINC000506388363    0.1300
     20 C20        -5.1857    3.1269   51.0632 C.ar    1  ZINC000506388363   -0.0700
     21 C21        -6.0089    2.0743   50.6623 C.ar    1  ZINC000506388363    0.1500
     22 F22        -7.3418    2.2628   50.5481 F       1  ZINC000506388363   -0.1200
     23 C23        -5.4574    0.8379   50.3817 C.ar    1  ZINC000506388363   -0.1600
     24 C24        -4.0932    0.6433   50.4977 C.ar    1  ZINC000506388363   -0.0500
     25 C25        -3.2717    1.6826   50.8946 C.ar    1  ZINC000506388363   -0.1600
     26 C26        -3.8097    2.9256   51.1726 C.ar    1  ZINC000506388363    0.1600
     27 F27        -3.0059    3.9399   51.5603 F       1  ZINC000506388363   -0.1200
     28 C28        -7.6745    3.6531   54.0942 C.3     1  ZINC000506388363    0.0400
     29 C29        -8.8996    3.6085   55.0059 C.3     1  ZINC000506388363    0.1200
     30 H30        -9.1454    2.9480   59.1919 H       1  ZINC000506388363    0.1400
     31 H31        -8.5139    1.7900   61.2678 H       1  ZINC000506388363    0.1400
     32 H32        -7.9254   -0.5976   61.2202 H       1  ZINC000506388363    0.1400
     33 H33        -8.6024   -0.7040   57.0102 H       1  ZINC000506388363    0.1400
     34 H34        -7.4969    4.3329   57.3920 H       1  ZINC000506388363    0.0800
     35 H35        -7.1064    2.6330   57.7637 H       1  ZINC000506388363    0.1000
     36 H36        -5.2907    3.8185   56.4660 H       1  ZINC000506388363    0.0900
     37 H37        -5.9376    2.3850   55.6312 H       1  ZINC000506388363    0.0400
     38 H38        -4.6843    5.1236   54.4146 H       1  ZINC000506388363    0.1000
     39 H39        -4.9035    3.4923   53.7372 H       1  ZINC000506388363    0.0400
     40 H40        -6.6737    6.9570   53.2846 H       1  ZINC000506388363    0.1800
     41 H41        -7.1596    7.2031   50.7873 H       1  ZINC000506388363    0.4400
     42 H42        -6.0936    0.0220   50.0716 H       1  ZINC000506388363    0.1500
     43 H43        -3.6674   -0.3244   50.2776 H       1  ZINC000506388363    0.1500
     44 H44        -2.2071    1.5242   50.9835 H       1  ZINC000506388363    0.1500
     45 H45        -7.8921    4.2665   53.2198 H       1  ZINC000506388363    0.0900
     46 H46        -7.4244    2.6411   53.7759 H       1  ZINC000506388363    0.0400
     47 H47        -9.7094    3.0778   54.5054 H       1  ZINC000506388363    0.1000
     48 H48        -9.2159    4.6242   55.2441 H       1  ZINC000506388363    0.0800
@<TRIPOS>BOND
     1     1     2    2
     2     2     3    1
     3     2    10   am
     4     3     9   ar
     5     3     4   ar
     6     4     5   ar
     7     4    30    1
     8     5     6   ar
     9     5    31    1
    10     6     7   ar
    11     6    32    1
    12     7     8    1
    13     7     9   ar
    14     9    33    1
    15    10    29    1
    16    10    11    1
    17    11    12    1
    18    11    34    1
    19    11    35    1
    20    12    13    1
    21    12    36    1
    22    12    37    1
    23    13    14    1
    24    13    28    1
    25    14    15    1
    26    14    38    1
    27    14    39    1
    28    15    19    1
    29    15    16    2
    30    16    17    1
    31    16    40    1
    32    17    18    1
    33    17    41    1
    34    18    19    2
    35    19    20    1
    36    20    26   ar
    37    20    21   ar
    38    21    22    1
    39    21    23   ar
    40    23    24   ar
    41    23    42    1
    42    24    25   ar
    43    24    43    1
    44    25    26   ar
    45    25    44    1
    46    26    27    1
    47    28    29    1
    48    28    45    1
    49    28    46    1
    50    29    47    1
    51    29    48    1
@<TRIPOS>SUBSTRUCTURE
     1 ZINC000506388363        1 TEMP              0 ****  ****    0 ROOT


##########                                Name:    ZINC000089894387
##########                DOCK_Rotatable_Bonds:                   8
##########                         Heavy_Atoms:                  22
##########                    Molecular_Weight:             326.823
##########                DOCK_Rotatable_Bonds:                   8
##########                       Formal_Charge:          -0.0300003
##########                     HBond_Acceptors:                   6
##########                        HBond_Donors:                   2
##########                         Heavy_Atoms:                  22
##########                          Grid_Score:          -28.633360
##########                     Grid_vdw_energy:          -28.539951
##########                      Grid_es_energy:           -0.093408
##########           Internal_energy_repulsive:           11.864377

@<TRIPOS>MOLECULE
ZINC000089894387
 45 46 1 0 0
SMALL
USER_CHARGES


@<TRIPOS>ATOM
      1 C1         -9.5957    2.3941   54.3456 C.3     1  ZINC000089894387   -0.1700
      2 C2        -10.0864    1.9473   52.9669 C.3     1  ZINC000089894387    0.1700
      3 H3        -10.2624    2.8232   52.3425 H       1  ZINC000089894387    0.0900
      4 N4         -9.0723    1.0962   52.3398 N.am    1  ZINC000089894387   -0.7400
      5 C5         -8.0902    1.6503   51.6018 C.2     1  ZINC000089894387    0.7100
      6 O6         -8.0467    2.8565   51.4551 O.2     1  ZINC000089894387   -0.5900
      7 N7         -7.1563    0.8675   51.0261 N.am    1  ZINC000089894387   -0.7500
      8 C8         -6.0877    1.4700   50.2252 C.3     1  ZINC000089894387    0.1400
      9 C9         -4.8275    0.6083   50.3255 C.3     1  ZINC000089894387    0.0500
     10 O10        -3.7709    1.2214   49.5840 O.3     1  ZINC000089894387   -0.3100
     11 C11        -2.6877    1.6436   50.2877 C.ar    1  ZINC000089894387    0.1400
     12 C12        -2.8493    2.5126   51.3568 C.ar    1  ZINC000089894387   -0.2100
     13 C13        -1.7468    2.9408   52.0711 C.ar    1  ZINC000089894387   -0.0700
     14 C14        -0.4827    2.5042   51.7215 C.ar    1  ZINC000089894387   -0.1500
     15 C15        -0.3181    1.6374   50.6550 C.ar    1  ZINC000089894387    0.0000
     16 Cl16        1.2707    1.0908   50.2186 Cl      1  ZINC000089894387   -0.0600
     17 C17        -1.4190    1.2015   49.9415 C.ar    1  ZINC000089894387   -0.1500
     18 C18       -11.3893    1.1599   53.1199 C.3     1  ZINC000089894387   -0.1000
     19 C19       -12.4600    2.0577   53.7475 C.3     1  ZINC000089894387   -0.1600
     20 C20       -13.7805    1.2870   53.8240 C.3     1  ZINC000089894387    0.0600
     21 O21       -14.1563    0.8571   52.5140 O.3     1  ZINC000089894387   -0.3800
     22 C22       -13.2151   -0.0231   51.8964 C.3     1  ZINC000089894387    0.0600
     23 C23       -11.8718    0.6951   51.7424 C.3     1  ZINC000089894387   -0.1500
     24 H24        -9.4197    1.5182   54.9701 H       1  ZINC000089894387    0.0600
     25 H25        -8.6675    2.9550   54.2365 H       1  ZINC000089894387    0.0600
     26 H26       -10.3502    3.0274   54.8122 H       1  ZINC000089894387    0.0700
     27 H27        -9.1077    0.1337   52.4558 H       1  ZINC000089894387    0.3900
     28 H28        -7.1917   -0.0950   51.1421 H       1  ZINC000089894387    0.4000
     29 H29        -6.4043    1.5309   49.1840 H       1  ZINC000089894387    0.0800
     30 H30        -5.8739    2.4712   50.5992 H       1  ZINC000089894387    0.0900
     31 H31        -4.5321    0.5166   51.3708 H       1  ZINC000089894387    0.0900
     32 H32        -5.0307   -0.3818   49.9172 H       1  ZINC000089894387    0.0700
     33 H33        -3.8365    2.8546   51.6305 H       1  ZINC000089894387    0.1300
     34 H34        -1.8727    3.6177   52.9031 H       1  ZINC000089894387    0.1400
     35 H35         0.3777    2.8401   52.2811 H       1  ZINC000089894387    0.1400
     36 H36        -1.2907    0.5249   49.1096 H       1  ZINC000089894387    0.1400
     37 H37       -11.2186    0.2930   53.7582 H       1  ZINC000089894387    0.0800
     38 H38       -12.1491    2.3485   54.7510 H       1  ZINC000089894387    0.0700
     39 H39       -12.5934    2.9488   53.1340 H       1  ZINC000089894387    0.0800
     40 H40       -13.6572    0.4180   54.4704 H       1  ZINC000089894387    0.0500
     41 H41       -14.5568    1.9353   54.2305 H       1  ZINC000089894387    0.0900
     42 H42       -13.0844   -0.9093   52.5176 H       1  ZINC000089894387    0.0500
     43 H43       -13.5840   -0.3186   50.9143 H       1  ZINC000089894387    0.1000
     44 H44       -11.9934    1.5586   51.0885 H       1  ZINC000089894387    0.0800
     45 H45       -11.1403    0.0111   51.3119 H       1  ZINC000089894387    0.0800
@<TRIPOS>BOND
     1     1     2    1
     2     1    24    1
     3     1    25    1
     4     1    26    1
     5     2     3    1
     6     2     4    1
     7     2    18    1
     8     4     5   am
     9     4    27    1
    10     5     6    2
    11     5     7   am
    12     7     8    1
    13     7    28    1
    14     8     9    1
    15     8    29    1
    16     8    30    1
    17     9    10    1
    18     9    31    1
    19     9    32    1
    20    10    11    1
    21    11    17   ar
    22    11    12   ar
    23    12    13   ar
    24    12    33    1
    25    13    14   ar
    26    13    34    1
    27    14    15   ar
    28    14    35    1
    29    15    16    1
    30    15    17   ar
    31    17    36    1
    32    18    23    1
    33    18    19    1
    34    18    37    1
    35    19    20    1
    36    19    38    1
    37    19    39    1
    38    20    21    1
    39    20    40    1
    40    20    41    1
    41    21    22    1
    42    22    23    1
    43    22    42    1
    44    22    43    1
    45    23    44    1
    46    23    45    1
@<TRIPOS>SUBSTRUCTURE
     1 ZINC000089894387        1 TEMP              0 ****  ****    0 ROOT


##########                                Name:    ZINC000867639366
##########                DOCK_Rotatable_Bonds:                   6
##########                         Heavy_Atoms:                  25
##########                    Molecular_Weight:             388.509
##########                DOCK_Rotatable_Bonds:                   6
##########                       Formal_Charge:          0.00999961
##########                     HBond_Acceptors:                   9
##########                        HBond_Donors:                   1
##########                         Heavy_Atoms:                  25
##########                          Grid_Score:          -28.616526
##########                     Grid_vdw_energy:          -29.123003
##########                      Grid_es_energy:            0.506478
##########           Internal_energy_repulsive:           38.953106

@<TRIPOS>MOLECULE
ZINC000867639366
 49 51 1 0 0
SMALL
USER_CHARGES


@<TRIPOS>ATOM
      1 C1          4.8026    1.9685   48.6288 C.3     1  ZINC000867639366    0.0300
      2 O2          3.4065    2.2723   48.6520 O.3     1  ZINC000867639366   -0.3800
      3 C3          2.6035    1.3752   47.8822 C.3     1  ZINC000867639366    0.0800
      4 H4          3.2185    0.5464   47.5313 H       1  ZINC000867639366    0.0800
      5 C5          2.0150    2.1189   46.6811 C.3     1  ZINC000867639366   -0.1400
      6 C6          1.1788    3.3029   47.1718 C.3     1  ZINC000867639366   -0.1200
      7 C7          0.0228    2.7844   48.0331 C.3     1  ZINC000867639366    0.1500
      8 H8         -0.6538    2.1913   47.4179 H       1  ZINC000867639366    0.0800
      9 C9         -0.7370    3.9668   48.6375 C.3     1  ZINC000867639366   -0.1900
     10 N10         0.5727    1.9472   49.1080 N.am    1  ZINC000867639366   -0.9800
     11 S11         0.1947    2.2513   50.6914 S.o2    1  ZINC000867639366    2.6900
     12 O12         0.7542    1.1872   51.4490 O.2     1  ZINC000867639366   -0.9500
     13 O13         0.5067    3.6181   50.9230 O.2     1  ZINC000867639366   -0.9400
     14 C14        -1.5545    2.1069   50.8471 C.ar    1  ZINC000867639366   -0.6300
     15 C15        -2.2280    2.8544   51.7952 C.ar    1  ZINC000867639366   -0.0500
     16 C16        -3.6003    2.7411   51.9173 C.ar    1  ZINC000867639366   -0.0400
     17 C17        -4.2991    1.8809   51.0912 C.ar    1  ZINC000867639366   -0.6300
     18 S18        -6.0482    1.7361   51.2473 S.o2    1  ZINC000867639366    2.7000
     19 O19        -6.3837    0.4282   50.8045 O.2     1  ZINC000867639366   -0.9400
     20 O20        -6.3777    2.2276   52.5393 O.2     1  ZINC000867639366   -0.9500
     21 N21        -6.7259    2.7860   50.1607 N.am    1  ZINC000867639366   -1.0800
     22 C22        -6.4443    4.2205   50.2548 C.3     1  ZINC000867639366    0.0800
     23 C23        -7.0262    5.1275   49.1687 C.3     1  ZINC000867639366   -0.1800
     24 C24        -7.6148    5.1504   50.5808 C.3     1  ZINC000867639366   -0.1900
     25 C25        -3.6258    1.1345   50.1422 C.ar    1  ZINC000867639366   -0.0400
     26 C26        -2.2539    1.2506   50.0175 C.ar    1  ZINC000867639366   -0.0400
     27 C27         1.4643    0.8342   48.7517 C.3     1  ZINC000867639366    0.1200
     28 H28         4.9634    0.9679   49.0300 H       1  ZINC000867639366    0.0400
     29 H29         5.1667    2.0112   47.6023 H       1  ZINC000867639366    0.0400
     30 H30         5.3425    2.6948   49.2363 H       1  ZINC000867639366    0.0900
     31 H31         2.8239    2.4833   46.0478 H       1  ZINC000867639366    0.0700
     32 H32         1.3829    1.4405   46.1081 H       1  ZINC000867639366    0.0700
     33 H33         1.8046    3.9690   47.7657 H       1  ZINC000867639366    0.0800
     34 H34         0.7791    3.8459   46.3153 H       1  ZINC000867639366    0.0800
     35 H35        -1.2503    4.5120   47.8454 H       1  ZINC000867639366    0.0700
     36 H36        -1.4677    3.5991   49.3579 H       1  ZINC000867639366    0.0600
     37 H37        -0.0344    4.6317   49.1398 H       1  ZINC000867639366    0.1000
     38 H38        -1.6820    3.5264   52.4407 H       1  ZINC000867639366    0.1600
     39 H39        -4.1264    3.3244   52.6585 H       1  ZINC000867639366    0.1500
     40 H40        -7.3094    2.4511   49.4618 H       1  ZINC000867639366    0.4200
     41 H41        -5.4662    4.4821   50.6587 H       1  ZINC000867639366    0.1400
     42 H42        -6.4309    5.9859   48.8575 H       1  ZINC000867639366    0.1100
     43 H43        -7.6186    4.6567   48.3841 H       1  ZINC000867639366    0.1000
     44 H44        -8.5944    4.6947   50.7252 H       1  ZINC000867639366    0.1000
     45 H45        -7.4067    6.0238   51.1987 H       1  ZINC000867639366    0.1000
     46 H46        -4.1718    0.4628   49.4965 H       1  ZINC000867639366    0.1500
     47 H47        -1.7279    0.6676   49.2761 H       1  ZINC000867639366    0.1500
     48 H48         0.9052    0.0820   48.1951 H       1  ZINC000867639366    0.0900
     49 H49         1.8750    0.3903   49.6585 H       1  ZINC000867639366    0.1000
@<TRIPOS>BOND
     1     1     2    1
     2     1    28    1
     3     1    29    1
     4     1    30    1
     5     2     3    1
     6     3     4    1
     7     3    27    1
     8     3     5    1
     9     5     6    1
    10     5    31    1
    11     5    32    1
    12     6     7    1
    13     6    33    1
    14     6    34    1
    15     7     8    1
    16     7     9    1
    17     7    10    1
    18     9    35    1
    19     9    36    1
    20     9    37    1
    21    10    11   am
    22    10    27    1
    23    11    12    2
    24    11    13    2
    25    11    14    1
    26    14    26   ar
    27    14    15   ar
    28    15    16   ar
    29    15    38    1
    30    16    17   ar
    31    16    39    1
    32    17    18    1
    33    17    25   ar
    34    18    19    2
    35    18    20    2
    36    18    21   am
    37    21    22    1
    38    21    40    1
    39    22    24    1
    40    22    23    1
    41    22    41    1
    42    23    24    1
    43    23    42    1
    44    23    43    1
    45    24    44    1
    46    24    45    1
    47    25    26   ar
    48    25    46    1
    49    26    47    1
    50    27    48    1
    51    27    49    1
@<TRIPOS>SUBSTRUCTURE
     1 ZINC000867639366        1 TEMP              0 ****  ****    0 ROOT


##########                                Name:    ZINC000579444893
##########                DOCK_Rotatable_Bonds:                   8
##########                         Heavy_Atoms:                  26
##########                    Molecular_Weight:             365.494
##########                DOCK_Rotatable_Bonds:                   8
##########                       Formal_Charge:         -0.00999993
##########                     HBond_Acceptors:                   7
##########                        HBond_Donors:                   1
##########                         Heavy_Atoms:                  26
##########                          Grid_Score:          -28.582087
##########                     Grid_vdw_energy:          -27.727804
##########                      Grid_es_energy:           -0.854283
##########           Internal_energy_repulsive:           25.928917

@<TRIPOS>MOLECULE
ZINC000579444893
 58 60 1 0 0
SMALL
USER_CHARGES


@<TRIPOS>ATOM
      1 C1         -6.9121    4.2899   66.2575 C.3     1  ZINC000579444893   -0.1600
      2 C2         -6.0753    3.0432   65.9632 C.3     1  ZINC000579444893    0.1700
      3 H3         -5.7195    2.6149   66.9001 H       1  ZINC000579444893    0.0900
      4 N4         -6.8985    2.0580   65.2574 N.am    1  ZINC000579444893   -0.7400
      5 C5         -7.6030    1.1450   65.9547 C.2     1  ZINC000579444893    0.7100
      6 O6         -7.5542    1.1380   67.1697 O.2     1  ZINC000579444893   -0.5900
      7 N7         -8.3616    0.2397   65.3055 N.am    1  ZINC000579444893   -0.6300
      8 C8         -9.1259   -0.7539   66.0636 C.3     1  ZINC000579444893    0.0800
      9 C9         -8.4218    0.2493   63.8418 C.3     1  ZINC000579444893    0.1100
     10 C10        -9.5049    1.2274   63.3824 C.3     1  ZINC000579444893    0.0600
     11 H11        -9.3176    2.2139   63.8064 H       1  ZINC000579444893    0.1000
     12 C12       -10.8931    0.7201   63.8263 C.3     1  ZINC000579444893   -0.1600
     13 C13       -11.7992    1.0804   62.6197 C.3     1  ZINC000579444893    0.0800
     14 H14       -12.1173    2.1219   62.6676 H       1  ZINC000579444893    0.1000
     15 F15       -12.9037    0.2246   62.5493 F       1  ZINC000579444893   -0.2000
     16 C16       -10.8389    0.8478   61.4267 C.3     1  ZINC000579444893    0.0200
     17 N17        -9.5160    1.3083   61.9101 N.3     1  ZINC000579444893   -0.5000
     18 C18        -8.4338    0.5016   61.3306 C.3     1  ZINC000579444893    0.1000
     19 C19        -8.4856    0.5970   59.8275 C.2     1  ZINC000579444893    0.0800
     20 C20        -8.4381    1.7359   59.0984 C.2     1  ZINC000579444893   -0.2500
     21 C21        -8.5133    1.3849   57.7465 C.2     1  ZINC000579444893    0.0400
     22 N22        -8.6028    0.0820   57.6669 N.2     1  ZINC000579444893   -0.2900
     23 N23        -8.5819   -0.4383   58.9674 N.pl3   1  ZINC000579444893   -0.3700
     24 C24        -8.6601   -1.8556   59.3300 C.3     1  ZINC000579444893    0.0900
     25 C25        -4.8783    3.4265   65.0907 C.3     1  ZINC000579444893   -0.1000
     26 C26        -3.9222    4.3673   65.8651 C.3     1  ZINC000579444893   -0.1200
     27 C27        -2.5712    4.1555   65.1379 C.3     1  ZINC000579444893   -0.1300
     28 C28        -2.5505    2.6484   64.8093 C.3     1  ZINC000579444893   -0.1300
     29 C29        -4.0175    2.1849   64.7793 C.3     1  ZINC000579444893   -0.1200
     30 H30        -7.8125    4.0032   66.8006 H       1  ZINC000579444893    0.0600
     31 H31        -6.3287    4.9845   66.8620 H       1  ZINC000579444893    0.0700
     32 H32        -7.1908    4.7701   65.3196 H       1  ZINC000579444893    0.0500
     33 H33        -6.9365    2.0629   64.2882 H       1  ZINC000579444893    0.4000
     34 H34       -10.0793   -0.3230   66.3693 H       1  ZINC000579444893    0.0600
     35 H35        -9.3062   -1.6282   65.4381 H       1  ZINC000579444893    0.0800
     36 H36        -8.5610   -1.0498   66.9475 H       1  ZINC000579444893    0.0700
     37 H37        -7.4574    0.5604   63.4405 H       1  ZINC000579444893    0.0900
     38 H38        -8.6596   -0.7515   63.4814 H       1  ZINC000579444893    0.0900
     39 H39       -10.8761   -0.3578   63.9872 H       1  ZINC000579444893    0.1100
     40 H40       -11.2238    1.2398   64.7255 H       1  ZINC000579444893    0.0800
     41 H41       -10.8029   -0.2108   61.1694 H       1  ZINC000579444893    0.0600
     42 H42       -11.1532    1.4379   60.5659 H       1  ZINC000579444893    0.0900
     43 H43        -7.4728    0.8741   61.6854 H       1  ZINC000579444893    0.1100
     44 H44        -8.5542   -0.5388   61.6329 H       1  ZINC000579444893    0.0500
     45 H45        -8.3569    2.7388   59.4909 H       1  ZINC000579444893    0.1500
     46 H46        -8.5004    2.0709   56.9125 H       1  ZINC000579444893    0.1800
     47 H47        -7.6533   -2.2610   59.4306 H       1  ZINC000579444893    0.0800
     48 H48        -9.1900   -1.9598   60.2767 H       1  ZINC000579444893    0.0800
     49 H49        -9.1952   -2.4006   58.5522 H       1  ZINC000579444893    0.0900
     50 H50        -5.2158    3.8980   64.1675 H       1  ZINC000579444893    0.0800
     51 H51        -4.2480    5.4040   65.7807 H       1  ZINC000579444893    0.0700
     52 H52        -3.8491    4.0682   66.9107 H       1  ZINC000579444893    0.0700
     53 H53        -2.5340    4.7460   64.2224 H       1  ZINC000579444893    0.0700
     54 H54        -1.7401    4.4143   65.7939 H       1  ZINC000579444893    0.0700
     55 H55        -2.0872    2.4846   63.8364 H       1  ZINC000579444893    0.0600
     56 H56        -2.0033    2.1056   65.5800 H       1  ZINC000579444893    0.0600
     57 H57        -4.1822    1.4173   65.5354 H       1  ZINC000579444893    0.0600
     58 H58        -4.2661    1.7962   63.7918 H       1  ZINC000579444893    0.0600
@<TRIPOS>BOND
     1     1     2    1
     2     1    30    1
     3     1    31    1
     4     1    32    1
     5     2     3    1
     6     2     4    1
     7     2    25    1
     8     4     5   am
     9     4    33    1
    10     5     6    2
    11     5     7   am
    12     7     8    1
    13     7     9    1
    14     8    34    1
    15     8    35    1
    16     8    36    1
    17     9    10    1
    18     9    37    1
    19     9    38    1
    20    10    11    1
    21    10    17    1
    22    10    12    1
    23    12    13    1
    24    12    39    1
    25    12    40    1
    26    13    14    1
    27    13    15    1
    28    13    16    1
    29    16    17    1
    30    16    41    1
    31    16    42    1
    32    17    18    1
    33    18    19    1
    34    18    43    1
    35    18    44    1
    36    19    23    1
    37    19    20    2
    38    20    21    1
    39    20    45    1
    40    21    22    2
    41    21    46    1
    42    22    23    1
    43    23    24    1
    44    24    47    1
    45    24    48    1
    46    24    49    1
    47    25    29    1
    48    25    26    1
    49    25    50    1
    50    26    27    1
    51    26    51    1
    52    26    52    1
    53    27    28    1
    54    27    53    1
    55    27    54    1
    56    28    29    1
    57    28    55    1
    58    28    56    1
    59    29    57    1
    60    29    58    1
@<TRIPOS>SUBSTRUCTURE
     1 ZINC000579444893        1 TEMP              0 ****  ****    0 ROOT


##########                                Name:    ZINC000252489163
##########                DOCK_Rotatable_Bonds:                   6
##########                         Heavy_Atoms:                  25
##########                    Molecular_Weight:             379.403
##########                DOCK_Rotatable_Bonds:                   6
##########                       Formal_Charge:          0.00999963
##########                     HBond_Acceptors:                  10
##########                        HBond_Donors:                   2
##########                         Heavy_Atoms:                  25
##########                          Grid_Score:          -28.575603
##########                     Grid_vdw_energy:          -29.357391
##########                      Grid_es_energy:            0.781789
##########           Internal_energy_repulsive:           10.900109

@<TRIPOS>MOLECULE
ZINC000252489163
 45 46 1 0 0
SMALL
USER_CHARGES


@<TRIPOS>ATOM
      1 C1         -3.1510    4.4571   53.0384 C.3     1  ZINC000252489163   -0.1100
      2 C2         -3.3276    3.3408   52.0415 C.ar    1  ZINC000252489163   -0.0600
      3 C3         -2.2524    2.9117   51.2889 C.ar    1  ZINC000252489163   -0.1300
      4 C4         -2.4158    1.8826   50.3707 C.ar    1  ZINC000252489163    0.1700
      5 N5         -1.3280    1.4450   49.6067 N.am    1  ZINC000252489163   -0.6800
      6 C6         -1.2949    1.6862   48.2811 C.2     1  ZINC000252489163    0.7100
      7 O7         -2.2103    2.2840   47.7490 O.2     1  ZINC000252489163   -0.5500
      8 N8         -0.2472    1.2649   47.5454 N.am    1  ZINC000252489163   -0.6200
      9 C9          0.8663    0.5413   48.1741 C.3     1  ZINC000252489163    0.1000
     10 C10         2.1775    1.2492   47.8186 C.3     1  ZINC000252489163   -0.1400
     11 C11         2.2886    1.3746   46.2974 C.3     1  ZINC000252489163   -0.1300
     12 C12         1.1259    2.2166   45.7669 C.3     1  ZINC000252489163    0.1400
     13 H13         1.1464    3.2008   46.2349 H       1  ZINC000252489163    0.0900
     14 N14         1.2508    2.3630   44.3146 N.am    1  ZINC000252489163   -1.1100
     15 S15         0.6880    3.7303   43.5688 S.o2    1  ZINC000252489163    2.6100
     16 C16         1.6342    5.0806   44.3252 C.3     1  ZINC000252489163   -0.6700
     17 O17         1.0580    3.5641   42.2069 O.2     1  ZINC000252489163   -0.9500
     18 O18        -0.6781    3.8022   43.9534 O.2     1  ZINC000252489163   -0.9500
     19 C19        -0.1999    1.5147   46.0984 C.3     1  ZINC000252489163    0.1100
     20 C20        -3.6607    1.2884   50.2126 C.ar    1  ZINC000252489163   -0.1000
     21 C21        -4.7324    1.7223   50.9685 C.ar    1  ZINC000252489163   -0.1600
     22 C22        -6.0840    1.0780   50.7976 C.3     1  ZINC000252489163    0.5100
     23 F23        -5.9222   -0.2217   50.3058 F       1  ZINC000252489163   -0.1700
     24 F24        -6.7378    1.0309   52.0336 F       1  ZINC000252489163   -0.1800
     25 F25        -6.8467    1.8266   49.8948 F       1  ZINC000252489163   -0.1800
     26 C26        -4.5652    2.7435   51.8855 C.ar    1  ZINC000252489163   -0.0900
     27 H27        -2.8686    4.0398   54.0049 H       1  ZINC000252489163    0.0800
     28 H28        -2.3693    5.1332   52.6921 H       1  ZINC000252489163    0.0700
     29 H29        -4.0875    5.0058   53.1392 H       1  ZINC000252489163    0.0700
     30 H30        -1.2853    3.3760   51.4138 H       1  ZINC000252489163    0.1300
     31 H31        -0.5977    0.9682   50.0312 H       1  ZINC000252489163    0.4100
     32 H32         0.7349    0.5375   49.2562 H       1  ZINC000252489163    0.0800
     33 H33         0.8919   -0.4834   47.8034 H       1  ZINC000252489163    0.0800
     34 H34         2.1880    2.2424   48.2672 H       1  ZINC000252489163    0.0700
     35 H35         3.0187    0.6690   48.1981 H       1  ZINC000252489163    0.0900
     36 H36         3.2323    1.8559   46.0406 H       1  ZINC000252489163    0.0800
     37 H37         2.2531    0.3823   45.8475 H       1  ZINC000252489163    0.0800
     38 H38         1.6632    1.6590   43.7899 H       1  ZINC000252489163    0.4200
     39 H39         2.6976    4.9258   44.1426 H       1  ZINC000252489163    0.1300
     40 H40         1.3250    6.0301   43.8884 H       1  ZINC000252489163    0.1300
     41 H41         1.4487    5.0971   45.3992 H       1  ZINC000252489163    0.1300
     42 H42        -0.2589    0.5706   45.5568 H       1  ZINC000252489163    0.0800
     43 H43        -1.0340    2.1553   45.8119 H       1  ZINC000252489163    0.1100
     44 H44        -3.7911    0.4882   49.4991 H       1  ZINC000252489163    0.1800
     45 H45        -5.4045    3.0805   52.4756 H       1  ZINC000252489163    0.1300
@<TRIPOS>BOND
     1     1     2    1
     2     1    27    1
     3     1    28    1
     4     1    29    1
     5     2    26   ar
     6     2     3   ar
     7     3     4   ar
     8     3    30    1
     9     4     5    1
    10     4    20   ar
    11     5     6   am
    12     5    31    1
    13     6     7    2
    14     6     8   am
    15     8    19    1
    16     8     9    1
    17     9    10    1
    18     9    32    1
    19     9    33    1
    20    10    11    1
    21    10    34    1
    22    10    35    1
    23    11    12    1
    24    11    36    1
    25    11    37    1
    26    12    13    1
    27    12    14    1
    28    12    19    1
    29    14    15   am
    30    14    38    1
    31    15    16    1
    32    15    17    2
    33    15    18    2
    34    16    39    1
    35    16    40    1
    36    16    41    1
    37    19    42    1
    38    19    43    1
    39    20    21   ar
    40    20    44    1
    41    21    22    1
    42    21    26   ar
    43    22    23    1
    44    22    24    1
    45    22    25    1
    46    26    45    1
@<TRIPOS>SUBSTRUCTURE
     1 ZINC000252489163        1 TEMP              0 ****  ****    0 ROOT


##########                                Name:    ZINC000949401225
##########                DOCK_Rotatable_Bonds:                   7
##########                         Heavy_Atoms:                  24
##########                    Molecular_Weight:             332.403
##########                DOCK_Rotatable_Bonds:                   7
##########                       Formal_Charge:                0.03
##########                     HBond_Acceptors:                   7
##########                        HBond_Donors:                   1
##########                         Heavy_Atoms:                  24
##########                          Grid_Score:          -28.554781
##########                     Grid_vdw_energy:          -27.532724
##########                      Grid_es_energy:           -1.022056
##########           Internal_energy_repulsive:           12.355400

@<TRIPOS>MOLECULE
ZINC000949401225
 48 50 1 0 0
SMALL
USER_CHARGES


@<TRIPOS>ATOM
      1 C1          0.3160    2.6403   44.1018 C.3     1  ZINC000949401225    0.0700
      2 N2          0.0548    2.9025   45.5193 N.pl3   1  ZINC000949401225   -0.4500
      3 C3         -0.6328    3.9788   45.9994 C.2     1  ZINC000949401225   -0.0100
      4 C4         -0.6818    3.9001   47.3411 C.2     1  ZINC000949401225   -0.1700
      5 C5          0.0352    2.6744   47.7088 C.2     1  ZINC000949401225   -0.2400
      6 C6          0.2546    2.1512   49.0678 C.2     1  ZINC000949401225    0.5900
      7 O7          0.7825    1.0667   49.2240 O.2     1  ZINC000949401225   -0.5500
      8 N8         -0.1297    2.8741   50.1383 N.am    1  ZINC000949401225   -0.7300
      9 C9          0.0869    2.3529   51.4902 C.3     1  ZINC000949401225    0.1200
     10 C10        -0.9181    2.9923   52.4505 C.3     1  ZINC000949401225    0.1200
     11 H11        -0.8461    2.5935   53.4624 H       1  ZINC000949401225    0.1000
     12 C12        -0.9239    4.5263   52.3971 C.3     1  ZINC000949401225   -0.1500
     13 C13        -2.4414    4.3476   52.5430 C.3     1  ZINC000949401225    0.1000
     14 N14        -2.2924    3.0189   51.9278 N.am    1  ZINC000949401225   -0.6400
     15 C15        -3.0719    2.1922   51.2029 C.2     1  ZINC000949401225    0.5500
     16 O16        -2.6391    1.1223   50.8303 O.2     1  ZINC000949401225   -0.5200
     17 C17        -4.4812    2.5973   50.8555 C.3     1  ZINC000949401225   -0.1400
     18 C18        -5.4282    2.1596   51.9747 C.3     1  ZINC000949401225    0.1500
     19 H19        -4.8585    1.8565   52.8532 H       1  ZINC000949401225    0.0900
     20 C20        -6.3964    3.3081   52.3354 C.3     1  ZINC000949401225   -0.1200
     21 C21        -7.6949    2.5348   52.6625 C.3     1  ZINC000949401225   -0.1600
     22 C22        -7.5592    1.2395   51.8928 C.2     1  ZINC000949401225    0.5200
     23 O23        -8.4703    0.4765   51.6510 O.2     1  ZINC000949401225   -0.5300
     24 N24        -6.2803    1.0560   51.5164 N.am    1  ZINC000949401225   -0.6200
     25 C25        -5.8023   -0.0950   50.7465 C.3     1  ZINC000949401225    0.0900
     26 C26         0.4539    2.1125   46.5342 C.2     1  ZINC000949401225    0.0800
     27 H27        -0.4989    2.0480   43.6857 H       1  ZINC000949401225    0.0800
     28 H28         0.3886    3.5861   43.5648 H       1  ZINC000949401225    0.0900
     29 H29         1.2525    2.0920   44.0003 H       1  ZINC000949401225    0.0900
     30 H30        -1.0667    4.7654   45.4000 H       1  ZINC000949401225    0.1700
     31 H31        -1.1546    4.6002   48.0139 H       1  ZINC000949401225    0.1500
     32 H32        -0.5497    3.7395   50.0137 H       1  ZINC000949401225    0.4000
     33 H33        -0.0493    1.2715   51.4888 H       1  ZINC000949401225    0.0700
     34 H34         1.1004    2.5910   51.8134 H       1  ZINC000949401225    0.0900
     35 H35        -0.4460    5.0051   53.2517 H       1  ZINC000949401225    0.1000
     36 H36        -0.6129    4.9412   51.4383 H       1  ZINC000949401225    0.1000
     37 H37        -2.7763    4.3098   53.5797 H       1  ZINC000949401225    0.0900
     38 H38        -3.0208    5.0445   51.9375 H       1  ZINC000949401225    0.0800
     39 H39        -4.5303    3.6801   50.7408 H       1  ZINC000949401225    0.1000
     40 H40        -4.7769    2.1191   49.9217 H       1  ZINC000949401225    0.1000
     41 H41        -6.0407    3.8590   53.2060 H       1  ZINC000949401225    0.1000
     42 H42        -6.5432    3.9756   51.4865 H       1  ZINC000949401225    0.0800
     43 H43        -7.7622    2.3376   53.7324 H       1  ZINC000949401225    0.1100
     44 H44        -8.5671    3.0920   52.3207 H       1  ZINC000949401225    0.1000
     45 H45        -6.6496   -0.7190   50.4619 H       1  ZINC000949401225    0.0800
     46 H46        -5.2913    0.2548   49.8494 H       1  ZINC000949401225    0.0600
     47 H47        -5.1104   -0.6772   51.3550 H       1  ZINC000949401225    0.0600
     48 H48         1.0150    1.1948   46.4375 H       1  ZINC000949401225    0.1800
@<TRIPOS>BOND
     1     1     2    1
     2     1    27    1
     3     1    28    1
     4     1    29    1
     5     2    26    1
     6     2     3    1
     7     3     4    2
     8     3    30    1
     9     4     5    1
    10     4    31    1
    11     5     6    1
    12     5    26    2
    13     6     7    2
    14     6     8   am
    15     8     9    1
    16     8    32    1
    17     9    10    1
    18     9    33    1
    19     9    34    1
    20    10    11    1
    21    10    14    1
    22    10    12    1
    23    12    13    1
    24    12    35    1
    25    12    36    1
    26    13    14    1
    27    13    37    1
    28    13    38    1
    29    14    15   am
    30    15    16    2
    31    15    17    1
    32    17    18    1
    33    17    39    1
    34    17    40    1
    35    18    19    1
    36    18    24    1
    37    18    20    1
    38    20    21    1
    39    20    41    1
    40    20    42    1
    41    21    22    1
    42    21    43    1
    43    21    44    1
    44    22    23    2
    45    22    24   am
    46    24    25    1
    47    25    45    1
    48    25    46    1
    49    25    47    1
    50    26    48    1
@<TRIPOS>SUBSTRUCTURE
     1 ZINC000949401225        1 TEMP              0 ****  ****    0 ROOT


##########                                Name:    ZINC000942890482
##########                DOCK_Rotatable_Bonds:                   8
##########                         Heavy_Atoms:                  25
##########                    Molecular_Weight:             346.445
##########                DOCK_Rotatable_Bonds:                   8
##########                       Formal_Charge:          -0.0100004
##########                     HBond_Acceptors:                   5
##########                        HBond_Donors:                   0
##########                         Heavy_Atoms:                  25
##########                          Grid_Score:          -28.508024
##########                     Grid_vdw_energy:          -29.506163
##########                      Grid_es_energy:            0.998138
##########           Internal_energy_repulsive:           25.818445

@<TRIPOS>MOLECULE
ZINC000942890482
 52 54 1 0 0
SMALL
USER_CHARGES


@<TRIPOS>ATOM
      1 C1          0.3352    5.0682   51.2642 C.3     1  ZINC000942890482   -0.1700
      2 C2          0.4628    3.5466   51.1671 C.3     1  ZINC000942890482    0.1000
      3 N3         -0.8306    2.9713   50.7896 N.am    1  ZINC000942890482   -0.6000
      4 C4         -1.7840    2.7855   51.7241 C.2     1  ZINC000942890482    0.5700
      5 O5         -1.5705    3.0954   52.8801 O.2     1  ZINC000942890482   -0.5100
      6 C6         -3.0881    2.2055   51.3436 C.ar    1  ZINC000942890482   -0.1400
      7 C7         -3.1531    0.9158   50.8122 C.ar    1  ZINC000942890482   -0.0600
      8 C8         -4.3729    0.3790   50.4594 C.ar    1  ZINC000942890482   -0.1600
      9 C9         -5.5336    1.1173   50.6310 C.ar    1  ZINC000942890482    0.1300
     10 F10        -6.7265    0.5866   50.2835 F       1  ZINC000942890482   -0.1300
     11 C11        -5.4749    2.3984   51.1586 C.ar    1  ZINC000942890482   -0.1600
     12 C12        -4.2612    2.9428   51.5193 C.ar    1  ZINC000942890482   -0.0100
     13 C13        -4.1988    4.3351   52.0927 C.3     1  ZINC000942890482   -0.1200
     14 C14        -1.0877    2.5978   49.3965 C.3     1  ZINC000942890482    0.1400
     15 H15        -2.1492    2.4115   49.2338 H       1  ZINC000942890482    0.1100
     16 C16        -0.2374    1.3670   48.9848 C.3     1  ZINC000942890482   -0.1500
     17 C17        -0.0923    1.5423   47.4583 C.3     1  ZINC000942890482    0.1100
     18 N18        -0.3109    2.9652   47.1596 N.am    1  ZINC000942890482   -0.6200
     19 C19        -0.2897    3.5225   45.9326 C.2     1  ZINC000942890482    0.5300
     20 O20        -0.4832    4.7129   45.8038 O.2     1  ZINC000942890482   -0.5400
     21 C21        -0.0259    2.6665   44.7207 C.3     1  ZINC000942890482   -0.1300
     22 C22         1.4803    2.6025   44.4597 C.3     1  ZINC000942890482   -0.0700
     23 C23         1.7437    1.7922   43.1889 C.3     1  ZINC000942890482   -0.1600
     24 C24         2.7921    0.6805   43.2645 C.3     1  ZINC000942890482   -0.1800
     25 C25         1.3059    0.3262   43.1823 C.3     1  ZINC000942890482   -0.1800
     26 C26        -0.5588    3.6818   48.4244 C.3     1  ZINC000942890482    0.0900
     27 H27         0.0269    5.4693   50.2987 H       1  ZINC000942890482    0.0600
     28 H28        -0.4098    5.3230   52.0180 H       1  ZINC000942890482    0.0600
     29 H29         1.2975    5.4963   51.5450 H       1  ZINC000942890482    0.0700
     30 H30         1.2076    3.2919   50.4132 H       1  ZINC000942890482    0.0900
     31 H31         0.7710    3.1455   52.1325 H       1  ZINC000942890482    0.0900
     32 H32        -2.2493    0.3400   50.6778 H       1  ZINC000942890482    0.1400
     33 H33        -4.4242   -0.6182   50.0479 H       1  ZINC000942890482    0.1400
     34 H34        -6.3822    2.9693   51.2903 H       1  ZINC000942890482    0.1400
     35 H35        -4.3642    4.2925   53.1692 H       1  ZINC000942890482    0.0900
     36 H36        -3.2183    4.7669   51.8925 H       1  ZINC000942890482    0.0700
     37 H37        -4.9691    4.9530   51.6309 H       1  ZINC000942890482    0.0700
     38 H38         0.7382    1.3924   49.4703 H       1  ZINC000942890482    0.1000
     39 H39        -0.7617    0.4405   49.2184 H       1  ZINC000942890482    0.0900
     40 H40         0.9090    1.2473   47.1448 H       1  ZINC000942890482    0.0700
     41 H41        -0.8379    0.9367   46.9431 H       1  ZINC000942890482    0.0700
     42 H42        -0.4073    1.6607   44.8964 H       1  ZINC000942890482    0.0900
     43 H43        -0.5267    3.0989   43.8545 H       1  ZINC000942890482    0.0900
     44 H44         1.8705    3.6124   44.3341 H       1  ZINC000942890482    0.0700
     45 H45         1.9755    2.1241   45.3047 H       1  ZINC000942890482    0.0700
     46 H46         1.6633    2.3458   42.2533 H       1  ZINC000942890482    0.1000
     47 H47         3.4017    0.5025   42.3786 H       1  ZINC000942890482    0.0900
     48 H48         3.2942    0.5262   44.2196 H       1  ZINC000942890482    0.0900
     49 H49         0.8303   -0.0610   44.0833 H       1  ZINC000942890482    0.0900
     50 H50         0.9378   -0.0848   42.2423 H       1  ZINC000942890482    0.0900
     51 H51        -1.3076    4.4603   48.2789 H       1  ZINC000942890482    0.0800
     52 H52         0.3678    4.1118   48.8047 H       1  ZINC000942890482    0.0900
@<TRIPOS>BOND
     1     1     2    1
     2     1    27    1
     3     1    28    1
     4     1    29    1
     5     2     3    1
     6     2    30    1
     7     2    31    1
     8     3     4   am
     9     3    14    1
    10     4     5    2
    11     4     6    1
    12     6    12   ar
    13     6     7   ar
    14     7     8   ar
    15     7    32    1
    16     8     9   ar
    17     8    33    1
    18     9    10    1
    19     9    11   ar
    20    11    12   ar
    21    11    34    1
    22    12    13    1
    23    13    35    1
    24    13    36    1
    25    13    37    1
    26    14    15    1
    27    14    26    1
    28    14    16    1
    29    16    17    1
    30    16    38    1
    31    16    39    1
    32    17    18    1
    33    17    40    1
    34    17    41    1
    35    18    19   am
    36    18    26    1
    37    19    20    2
    38    19    21    1
    39    21    22    1
    40    21    42    1
    41    21    43    1
    42    22    23    1
    43    22    44    1
    44    22    45    1
    45    23    25    1
    46    23    24    1
    47    23    46    1
    48    24    25    1
    49    24    47    1
    50    24    48    1
    51    25    49    1
    52    25    50    1
    53    26    51    1
    54    26    52    1
@<TRIPOS>SUBSTRUCTURE
     1 ZINC000942890482        1 TEMP              0 ****  ****    0 ROOT


##########                                Name:    ZINC000822206030
##########                DOCK_Rotatable_Bonds:                   7
##########                         Heavy_Atoms:                  29
##########                    Molecular_Weight:             391.448
##########                DOCK_Rotatable_Bonds:                   7
##########                       Formal_Charge:         -0.00999995
##########                     HBond_Acceptors:                   7
##########                        HBond_Donors:                   1
##########                         Heavy_Atoms:                  29
##########                          Grid_Score:          -28.483765
##########                     Grid_vdw_energy:          -26.674475
##########                      Grid_es_energy:           -1.809290
##########           Internal_energy_repulsive:           21.700891

@<TRIPOS>MOLECULE
ZINC000822206030
 51 55 1 0 0
SMALL
USER_CHARGES


@<TRIPOS>ATOM
      1 C1         -7.9565   -0.2451   62.1395 C.3     1  ZINC000822206030   -0.1300
      2 C2         -9.3550    0.2371   61.8515 C.ar    1  ZINC000822206030   -0.0400
      3 C3        -10.2168    0.5190   62.8929 C.ar    1  ZINC000822206030   -0.1500
      4 C4        -11.5023    0.9617   62.6288 C.ar    1  ZINC000822206030    0.1100
      5 F5        -12.3441    1.2366   63.6490 F       1  ZINC000822206030   -0.1400
      6 C6        -11.9256    1.1235   61.3204 C.ar    1  ZINC000822206030   -0.1500
      7 C7        -11.0665    0.8426   60.2758 C.ar    1  ZINC000822206030   -0.0800
      8 C8         -9.7759    0.4037   60.5386 C.ar    1  ZINC000822206030    0.1100
      9 N9         -8.9033    0.1188   59.4811 N.am    1  ZINC000822206030   -0.5600
     10 C10        -8.8775   -1.2232   58.8940 C.3     1  ZINC000822206030    0.1500
     11 C11       -10.2447   -1.5638   58.3594 C.ar    1  ZINC000822206030   -0.0900
     12 C12       -10.9847   -2.5712   58.9515 C.ar    1  ZINC000822206030   -0.1000
     13 C13       -12.2376   -2.8871   58.4662 C.ar    1  ZINC000822206030   -0.0800
     14 C14       -12.7566   -2.1892   57.3780 C.ar    1  ZINC000822206030   -0.0100
     15 C15       -14.1038   -2.5242   56.8519 C.2     1  ZINC000822206030    0.2200
     16 N16       -14.7132   -1.9576   55.8297 N.2     1  ZINC000822206030   -0.2900
     17 N17       -15.8613   -2.5260   55.6904 N.pl3   1  ZINC000822206030   -0.2300
     18 N18       -15.9987   -3.4347   56.5918 N.2     1  ZINC000822206030   -0.0500
     19 N19       -14.9349   -3.4659   57.3206 N.2     1  ZINC000822206030   -0.2700
     20 C20       -12.0070   -1.1756   56.7853 C.ar    1  ZINC000822206030   -0.0800
     21 C21       -10.7573   -0.8643   57.2819 C.ar    1  ZINC000822206030   -0.0900
     22 C22        -8.0871    1.0791   59.0036 C.2     1  ZINC000822206030    0.5500
     23 O23        -7.3301    0.8319   58.0887 O.2     1  ZINC000822206030   -0.5000
     24 C24        -8.1148    2.4600   59.6064 C.3     1  ZINC000822206030   -0.1900
     25 H25        -7.6100    2.5640   60.5668 H       1  ZINC000822206030    0.1200
     26 C26        -9.3656    3.3089   59.3703 C.3     1  ZINC000822206030   -0.1400
     27 C27        -8.0606    3.6508   58.6472 C.3     1  ZINC000822206030   -0.0900
     28 H28        -7.5202    4.5383   58.9766 H       1  ZINC000822206030    0.1100
     29 C29        -7.9827    3.3491   57.1492 C.3     1  ZINC000822206030   -0.1100
     30 C30        -7.9033    4.5398   56.1919 C.3     1  ZINC000822206030   -0.2000
     31 C31        -6.6695    3.6674   56.4318 C.3     1  ZINC000822206030   -0.1200
     32 H32        -7.2875    0.6111   62.2259 H       1  ZINC000822206030    0.0900
     33 H33        -7.9510   -0.8063   63.0740 H       1  ZINC000822206030    0.0700
     34 H34        -7.6197   -0.8889   61.3270 H       1  ZINC000822206030    0.0700
     35 H35        -9.8884    0.3939   63.9141 H       1  ZINC000822206030    0.1400
     36 H36       -12.9283    1.4692   61.1165 H       1  ZINC000822206030    0.1400
     37 H37       -11.3972    0.9685   59.2555 H       1  ZINC000822206030    0.1400
     38 H38        -8.1523   -1.2500   58.0806 H       1  ZINC000822206030    0.1000
     39 H39        -8.5946   -1.9483   59.6570 H       1  ZINC000822206030    0.0900
     40 H40       -10.5813   -3.1119   59.7950 H       1  ZINC000822206030    0.1300
     41 H41       -12.8145   -3.6740   58.9291 H       1  ZINC000822206030    0.1400
     42 H42       -16.5189   -2.3038   55.0129 H       1  ZINC000822206030    0.4800
     43 H43       -12.4045   -0.6318   55.9412 H       1  ZINC000822206030    0.1300
     44 H44       -10.1753   -0.0786   56.8233 H       1  ZINC000822206030    0.1400
     45 H45       -10.1684    2.8685   58.7789 H       1  ZINC000822206030    0.1000
     46 H46        -9.6835    3.9716   60.1752 H       1  ZINC000822206030    0.1000
     47 H47        -8.5379    2.4718   56.8170 H       1  ZINC000822206030    0.1000
     48 H48        -8.4064    4.4463   55.2295 H       1  ZINC000822206030    0.0900
     49 H49        -7.9064    5.5382   56.6291 H       1  ZINC000822206030    0.0900
     50 H50        -5.8609    4.0920   57.0268 H       1  ZINC000822206030    0.0800
     51 H51        -6.3609    3.0000   55.6271 H       1  ZINC000822206030    0.0900
@<TRIPOS>BOND
     1     1     2    1
     2     1    32    1
     3     1    33    1
     4     1    34    1
     5     2     8   ar
     6     2     3   ar
     7     3     4   ar
     8     3    35    1
     9     4     5    1
    10     4     6   ar
    11     6     7   ar
    12     6    36    1
    13     7     8   ar
    14     7    37    1
    15     8     9    1
    16     9    10    1
    17     9    22   am
    18    10    11    1
    19    10    38    1
    20    10    39    1
    21    11    21   ar
    22    11    12   ar
    23    12    13   ar
    24    12    40    1
    25    13    14   ar
    26    13    41    1
    27    14    15    1
    28    14    20   ar
    29    15    19    1
    30    15    16    2
    31    16    17    1
    32    17    18    1
    33    17    42    1
    34    18    19    2
    35    20    21   ar
    36    20    43    1
    37    21    44    1
    38    22    23    2
    39    22    24    1
    40    24    25    1
    41    24    27    1
    42    24    26    1
    43    26    27    1
    44    26    45    1
    45    26    46    1
    46    27    28    1
    47    27    29    1
    48    29    31    1
    49    29    30    1
    50    29    47    1
    51    30    31    1
    52    30    48    1
    53    30    49    1
    54    31    50    1
    55    31    51    1
@<TRIPOS>SUBSTRUCTURE
     1 ZINC000822206030        1 TEMP              0 ****  ****    0 ROOT


##########                                Name:    ZINC000811540126
##########                DOCK_Rotatable_Bonds:                   7
##########                         Heavy_Atoms:                  21
##########                    Molecular_Weight:             397.212
##########                DOCK_Rotatable_Bonds:                   7
##########                       Formal_Charge:           0.0100001
##########                     HBond_Acceptors:                   4
##########                        HBond_Donors:                   3
##########                         Heavy_Atoms:                  21
##########                          Grid_Score:          -28.472956
##########                     Grid_vdw_energy:          -28.240631
##########                      Grid_es_energy:           -0.232324
##########           Internal_energy_repulsive:            8.704820

@<TRIPOS>MOLECULE
ZINC000811540126
 37 38 1 0 0
SMALL
USER_CHARGES


@<TRIPOS>ATOM
      1 C1         -0.2499    3.1720   45.6526 C.3     1  ZINC000811540126   -0.1600
      2 C2         -0.0501    2.1939   46.8121 C.3     1  ZINC000811540126    0.1200
      3 H3          0.8841    2.4237   47.3245 H       1  ZINC000811540126    0.1000
      4 N4         -1.1663    2.3173   47.7529 N.am    1  ZINC000811540126   -0.7200
      5 C5         -0.9281    2.3645   49.0787 C.2     1  ZINC000811540126    0.5700
      6 O6          0.2131    2.3031   49.4938 O.2     1  ZINC000811540126   -0.5100
      7 C7         -2.0519    2.4905   50.0260 C.ar    1  ZINC000811540126   -0.1600
      8 C8         -3.0733    1.5379   50.0349 C.ar    1  ZINC000811540126   -0.0400
      9 C9         -4.1209    1.6615   50.9228 C.ar    1  ZINC000811540126   -0.1200
     10 I10        -5.6521    0.2318   50.9349 I       1  ZINC000811540126   -0.0300
     11 C11        -4.1651    2.7269   51.8074 C.ar    1  ZINC000811540126   -0.0400
     12 C12        -3.1618    3.6759   51.8086 C.ar    1  ZINC000811540126   -0.1500
     13 C13        -2.0979    3.5639   50.9264 C.ar    1  ZINC000811540126    0.1900
     14 O14        -1.1114    4.4952   50.9269 O.3     1  ZINC000811540126   -0.4700
     15 C15         0.0039    0.7643   46.2696 C.3     1  ZINC000811540126    0.1400
     16 H16        -0.9356    0.5296   45.7695 H       1  ZINC000811540126    0.1300
     17 O17         0.2091   -0.1479   47.3503 O.3     1  ZINC000811540126   -0.5400
     18 C18         1.1401    0.6426   45.2870 C.ar    1  ZINC000811540126   -0.1200
     19 C19         2.4399    0.5312   45.7438 C.ar    1  ZINC000811540126   -0.1100
     20 C20         3.4821    0.4195   44.8424 C.ar    1  ZINC000811540126   -0.1100
     21 C21         3.2242    0.4188   43.4843 C.ar    1  ZINC000811540126   -0.1200
     22 C22         1.9242    0.5294   43.0276 C.ar    1  ZINC000811540126   -0.1100
     23 C23         0.8817    0.6367   43.9290 C.ar    1  ZINC000811540126   -0.1100
     24 H24        -0.2885    4.1905   46.0390 H       1  ZINC000811540126    0.0600
     25 H25         0.5805    3.0801   44.9526 H       1  ZINC000811540126    0.0700
     26 H26        -1.1841    2.9422   45.1402 H       1  ZINC000811540126    0.0700
     27 H27        -2.0768    2.3651   47.4218 H       1  ZINC000811540126    0.3900
     28 H28        -3.0428    0.7058   49.3470 H       1  ZINC000811540126    0.1300
     29 H29        -4.9890    2.8161   52.4999 H       1  ZINC000811540126    0.1400
     30 H30        -3.2034    4.5037   52.5010 H       1  ZINC000811540126    0.1500
     31 H31        -0.5183    4.4404   50.1651 H       1  ZINC000811540126    0.4000
     32 H32        -0.4663   -0.0983   48.0405 H       1  ZINC000811540126    0.3700
     33 H33         2.6414    0.5317   46.8048 H       1  ZINC000811540126    0.1100
     34 H34         4.4978    0.3332   45.1993 H       1  ZINC000811540126    0.1200
     35 H35         4.0385    0.3324   42.7801 H       1  ZINC000811540126    0.1200
     36 H36         1.7228    0.5292   41.9665 H       1  ZINC000811540126    0.1300
     37 H37        -0.1340    0.7230   43.5722 H       1  ZINC000811540126    0.1200
@<TRIPOS>BOND
     1     1     2    1
     2     1    24    1
     3     1    25    1
     4     1    26    1
     5     2     3    1
     6     2     4    1
     7     2    15    1
     8     4     5   am
     9     4    27    1
    10     5     6    2
    11     5     7    1
    12     7    13   ar
    13     7     8   ar
    14     8     9   ar
    15     8    28    1
    16     9    10    1
    17     9    11   ar
    18    11    12   ar
    19    11    29    1
    20    12    13   ar
    21    12    30    1
    22    13    14    1
    23    14    31    1
    24    15    16    1
    25    15    17    1
    26    15    18    1
    27    17    32    1
    28    18    23   ar
    29    18    19   ar
    30    19    20   ar
    31    19    33    1
    32    20    21   ar
    33    20    34    1
    34    21    22   ar
    35    21    35    1
    36    22    23   ar
    37    22    36    1
    38    23    37    1
@<TRIPOS>SUBSTRUCTURE
     1 ZINC000811540126        1 TEMP              0 ****  ****    0 ROOT


##########                                Name:    ZINC000002873519
##########                DOCK_Rotatable_Bonds:                   5
##########                         Heavy_Atoms:                  25
##########                    Molecular_Weight:             375.207
##########                DOCK_Rotatable_Bonds:                   5
##########                       Formal_Charge:               -0.02
##########                     HBond_Acceptors:                   6
##########                        HBond_Donors:                   0
##########                         Heavy_Atoms:                  25
##########                          Grid_Score:          -28.443550
##########                     Grid_vdw_energy:          -28.165554
##########                      Grid_es_energy:           -0.277996
##########           Internal_energy_repulsive:            6.612675

@<TRIPOS>MOLECULE
ZINC000002873519
 37 39 1 0 0
SMALL
USER_CHARGES


@<TRIPOS>ATOM
      1 C1          0.4181    6.7429   48.7721 C.3     1  ZINC000002873519   -0.1500
      2 C2          0.8924    5.5150   49.5060 C.2     1  ZINC000002873519    0.4500
      3 O3          1.5404    5.6294   50.5193 O.2     1  ZINC000002873519   -0.4800
      4 O4          0.5947    4.2937   49.0337 O.3     1  ZINC000002873519   -0.2900
      5 C5          1.3691    3.2631   49.4584 C.ar    1  ZINC000002873519    0.1200
      6 C6          2.5299    2.9380   48.7768 C.ar    1  ZINC000002873519   -0.1100
      7 C7          3.3187    1.8889   49.2097 C.ar    1  ZINC000002873519   -0.0800
      8 C8          2.9576    1.1524   50.3280 C.ar    1  ZINC000002873519   -0.0400
      9 Cl9         3.9608   -0.1617   50.8577 Cl      1  ZINC000002873519   -0.0500
     10 C10         1.8064    1.4589   51.0211 C.ar    1  ZINC000002873519   -0.0800
     11 C11         0.9995    2.5235   50.5968 C.ar    1  ZINC000002873519   -0.0700
     12 C12        -0.2246    2.8568   51.3265 C.2     1  ZINC000002873519    0.0400
     13 C13        -1.4182    2.2509   50.9861 C.2     1  ZINC000002873519   -0.1900
     14 C14        -2.7435    2.4598   51.5944 C.2     1  ZINC000002873519   -0.2000
     15 C15        -3.5994    1.6524   50.9333 C.2     1  ZINC000002873519    0.1200
     16 C16        -5.0429    1.5500   51.2262 C.ar    1  ZINC000002873519   -0.0400
     17 C17        -5.7589    0.4157   50.8368 C.ar    1  ZINC000002873519   -0.0800
     18 C18        -7.1069    0.3263   51.1133 C.ar    1  ZINC000002873519   -0.1100
     19 C19        -7.7510    1.3583   51.7753 C.ar    1  ZINC000002873519   -0.0200
     20 Cl20       -9.4482    1.2380   52.1197 Cl      1  ZINC000002873519   -0.0600
     21 C21        -7.0468    2.4856   52.1642 C.ar    1  ZINC000002873519   -0.1100
     22 C22        -5.6970    2.5847   51.8992 C.ar    1  ZINC000002873519   -0.0800
     23 O23        -2.9670    0.9518   49.9707 O.3     1  ZINC000002873519   -0.2600
     24 C24        -1.6566    1.2524   49.9266 C.2     1  ZINC000002873519    0.5200
     25 O25        -0.8284    0.7855   49.1672 O.2     1  ZINC000002873519   -0.4200
     26 H26         1.1693    7.0422   48.0413 H       1  ZINC000002873519    0.1100
     27 H27        -0.5185    6.5213   48.2606 H       1  ZINC000002873519    0.1000
     28 H28         0.2604    7.5533   49.4839 H       1  ZINC000002873519    0.1100
     29 H29         2.8194    3.5055   47.9046 H       1  ZINC000002873519    0.1500
     30 H30         4.2224    1.6407   48.6732 H       1  ZINC000002873519    0.1500
     31 H31         1.5286    0.8825   51.8911 H       1  ZINC000002873519    0.1500
     32 H32        -0.1946    3.5765   52.1312 H       1  ZINC000002873519    0.1500
     33 H33        -2.9829    3.1269   52.4092 H       1  ZINC000002873519    0.1700
     34 H34        -5.2578   -0.3895   50.3199 H       1  ZINC000002873519    0.1400
     35 H35        -7.6617   -0.5503   50.8128 H       1  ZINC000002873519    0.1400
     36 H36        -7.5549    3.2871   52.6798 H       1  ZINC000002873519    0.1400
     37 H37        -5.1490    3.4643   52.2028 H       1  ZINC000002873519    0.1400
@<TRIPOS>BOND
     1     1     2    1
     2     1    26    1
     3     1    27    1
     4     1    28    1
     5     2     3    2
     6     2     4    1
     7     4     5    1
     8     5    11   ar
     9     5     6   ar
    10     6     7   ar
    11     6    29    1
    12     7     8   ar
    13     7    30    1
    14     8     9    1
    15     8    10   ar
    16    10    11   ar
    17    10    31    1
    18    11    12    1
    19    12    13    2
    20    12    32    1
    21    13    24    1
    22    13    14    1
    23    14    15    2
    24    14    33    1
    25    15    16    1
    26    15    23    1
    27    16    22   ar
    28    16    17   ar
    29    17    18   ar
    30    17    34    1
    31    18    19   ar
    32    18    35    1
    33    19    20    1
    34    19    21   ar
    35    21    22   ar
    36    21    36    1
    37    22    37    1
    38    23    24    1
    39    24    25    2
@<TRIPOS>SUBSTRUCTURE
     1 ZINC000002873519        1 TEMP              0 ****  ****    0 ROOT


##########                                Name:    ZINC000650955167
##########                DOCK_Rotatable_Bonds:                   9
##########                         Heavy_Atoms:                  26
##########                    Molecular_Weight:             361.484
##########                DOCK_Rotatable_Bonds:                   9
##########                       Formal_Charge:        -7.07805e-07
##########                     HBond_Acceptors:                   6
##########                        HBond_Donors:                   2
##########                         Heavy_Atoms:                  26
##########                          Grid_Score:          -28.423189
##########                     Grid_vdw_energy:          -27.546705
##########                      Grid_es_energy:           -0.876483
##########           Internal_energy_repulsive:           15.222399

@<TRIPOS>MOLECULE
ZINC000650955167
 57 59 1 0 0
SMALL
USER_CHARGES


@<TRIPOS>ATOM
      1 C1          1.9725    5.7331   46.8052 C.3     1  ZINC000650955167    0.0200
      2 O2          2.0982    4.4212   47.3578 O.3     1  ZINC000650955167   -0.3200
      3 C3          1.4481    3.4159   46.7146 C.ar    1  ZINC000650955167    0.1300
      4 C4          2.0128    2.8306   45.5909 C.ar    1  ZINC000650955167   -0.2000
      5 C5          1.3500    1.8084   44.9390 C.ar    1  ZINC000650955167   -0.0800
      6 C6          0.1251    1.3692   45.4056 C.ar    1  ZINC000650955167   -0.1500
      7 C7         -0.4402    1.9514   46.5253 C.ar    1  ZINC000650955167   -0.0800
      8 C8          0.2212    2.9694   47.1842 C.ar    1  ZINC000650955167   -0.1100
      9 C9         -0.3950    3.6031   48.4047 C.3     1  ZINC000650955167   -0.0800
     10 C10        -0.4067    2.5923   49.5532 C.3     1  ZINC000650955167    0.1800
     11 H11        -0.2286    1.5920   49.1588 H       1  ZINC000650955167    0.0900
     12 N12        -1.7096    2.6287   50.2223 N.am    1  ZINC000650955167   -0.7300
     13 C13        -2.5565    1.5868   50.1053 C.2     1  ZINC000650955167    0.7400
     14 O14        -2.2386    0.6161   49.4456 O.2     1  ZINC000650955167   -0.5800
     15 N15        -3.7557    1.6209   50.7194 N.am    1  ZINC000650955167   -0.6700
     16 C16        -4.9109    0.7185   50.8378 C.3     1  ZINC000650955167    0.1100
     17 C17        -5.7900    1.9593   51.0468 C.3     1  ZINC000650955167    0.0300
     18 N18        -6.8292    1.7954   52.0721 N.3     1  ZINC000650955167   -0.5100
     19 C19        -7.8649    0.8381   51.6285 C.3     1  ZINC000650955167    0.0400
     20 C20        -9.1829    1.3659   52.2479 C.3     1  ZINC000650955167   -0.1600
     21 C21        -8.9921    2.9010   52.1296 C.3     1  ZINC000650955167    0.0800
     22 H22        -9.2648    3.2474   51.1328 H       1  ZINC000650955167    0.0600
     23 O23        -9.7556    3.5834   53.1263 O.3     1  ZINC000650955167   -0.5600
     24 C24        -7.4796    3.0833   52.3759 C.3     1  ZINC000650955167    0.0500
     25 C25        -4.4822    2.5742   51.5717 C.3     1  ZINC000650955167    0.1400
     26 C26         0.6920    2.9480   50.5568 C.3     1  ZINC000650955167   -0.1100
     27 C27         0.0843    3.7322   51.7216 C.3     1  ZINC000650955167   -0.1400
     28 C28         1.3342    1.6642   51.0861 C.3     1  ZINC000650955167   -0.1500
     29 H29         2.5383    6.4391   47.4131 H       1  ZINC000650955167    0.1000
     30 H30         2.3614    5.7372   45.7869 H       1  ZINC000650955167    0.0600
     31 H31         0.9220    6.0235   46.7942 H       1  ZINC000650955167    0.0600
     32 H32         2.9694    3.1738   45.2256 H       1  ZINC000650955167    0.1300
     33 H33         1.7892    1.3523   44.0640 H       1  ZINC000650955167    0.1200
     34 H34        -0.3916    0.5703   44.8944 H       1  ZINC000650955167    0.1200
     35 H35        -1.3974    1.6067   46.8876 H       1  ZINC000650955167    0.1300
     36 H36         0.1894    4.4762   48.6950 H       1  ZINC000650955167    0.0900
     37 H37        -1.4167    3.9084   48.1790 H       1  ZINC000650955167    0.0800
     38 H38        -1.9626    3.4025   50.7495 H       1  ZINC000650955167    0.4000
     39 H39        -5.1351    0.1775   49.9185 H       1  ZINC000650955167    0.0700
     40 H40        -4.8651    0.0670   51.7104 H       1  ZINC000650955167    0.0900
     41 H41        -6.1618    2.4043   50.1239 H       1  ZINC000650955167    0.0900
     42 H42        -7.9333    0.8303   50.5406 H       1  ZINC000650955167    0.0500
     43 H43        -7.6431   -0.1613   52.0028 H       1  ZINC000650955167    0.0900
     44 H44       -10.0460    1.0341   51.6708 H       1  ZINC000650955167    0.0800
     45 H45        -9.2728    1.0629   53.2911 H       1  ZINC000650955167    0.0900
     46 H46       -10.7043    3.4002   53.0887 H       1  ZINC000650955167    0.3800
     47 H47        -7.3031    3.3513   53.4175 H       1  ZINC000650955167    0.0900
     48 H48        -7.0880    3.8604   51.7193 H       1  ZINC000650955167    0.0700
     49 H49        -4.3251    2.4152   52.6384 H       1  ZINC000650955167    0.0900
     50 H50        -4.3414    3.6136   51.2748 H       1  ZINC000650955167    0.0800
     51 H51         1.4501    3.5573   50.0648 H       1  ZINC000650955167    0.0700
     52 H52        -0.6737    3.1228   52.2137 H       1  ZINC000650955167    0.0600
     53 H53         0.8671    3.9854   52.4367 H       1  ZINC000650955167    0.0400
     54 H54        -0.3732    4.6467   51.3445 H       1  ZINC000650955167    0.0500
     55 H55         1.7671    1.1055   50.2563 H       1  ZINC000650955167    0.0600
     56 H56         2.1169    1.9175   51.8012 H       1  ZINC000650955167    0.0600
     57 H57         0.5760    1.0548   51.5782 H       1  ZINC000650955167    0.0600
@<TRIPOS>BOND
     1     1     2    1
     2     1    29    1
     3     1    30    1
     4     1    31    1
     5     2     3    1
     6     3     8   ar
     7     3     4   ar
     8     4     5   ar
     9     4    32    1
    10     5     6   ar
    11     5    33    1
    12     6     7   ar
    13     6    34    1
    14     7     8   ar
    15     7    35    1
    16     8     9    1
    17     9    10    1
    18     9    36    1
    19     9    37    1
    20    10    11    1
    21    10    12    1
    22    10    26    1
    23    12    13   am
    24    12    38    1
    25    13    14    2
    26    13    15   am
    27    15    25    1
    28    15    16    1
    29    16    17    1
    30    16    39    1
    31    16    40    1
    32    17    18    1
    33    17    25    1
    34    17    41    1
    35    18    24    1
    36    18    19    1
    37    19    20    1
    38    19    42    1
    39    19    43    1
    40    20    21    1
    41    20    44    1
    42    20    45    1
    43    21    22    1
    44    21    23    1
    45    21    24    1
    46    23    46    1
    47    24    47    1
    48    24    48    1
    49    25    49    1
    50    25    50    1
    51    26    27    1
    52    26    28    1
    53    26    51    1
    54    27    52    1
    55    27    53    1
    56    27    54    1
    57    28    55    1
    58    28    56    1
    59    28    57    1
@<TRIPOS>SUBSTRUCTURE
     1 ZINC000650955167        1 TEMP              0 ****  ****    0 ROOT


##########                                Name:    ZINC000504860563
##########                DOCK_Rotatable_Bonds:                   6
##########                         Heavy_Atoms:                  25
##########                    Molecular_Weight:             370.786
##########                DOCK_Rotatable_Bonds:                   6
##########                       Formal_Charge:                0.01
##########                     HBond_Acceptors:                   9
##########                        HBond_Donors:                   0
##########                         Heavy_Atoms:                  25
##########                          Grid_Score:          -28.365307
##########                     Grid_vdw_energy:          -27.904339
##########                      Grid_es_energy:           -0.460968
##########           Internal_energy_repulsive:           17.433187

@<TRIPOS>MOLECULE
ZINC000504860563
 42 44 1 0 0
SMALL
USER_CHARGES


@<TRIPOS>ATOM
      1 O1         -8.7189   -0.2562   51.8406 O.2     1  ZINC000504860563   -0.5100
      2 C2         -8.3628    0.8915   52.0233 C.2     1  ZINC000504860563    0.5700
      3 C3         -9.0449    1.7247   53.0363 C.ar    1  ZINC000504860563    0.0500
      4 N4         -8.4660    1.9392   54.2125 N.ar    1  ZINC000504860563   -0.4100
      5 C5         -9.0382    2.6738   55.1398 C.ar    1  ZINC000504860563    0.0600
      6 C6        -10.2779    3.2586   54.9262 C.ar    1  ZINC000504860563   -0.1000
      7 C7        -10.9219    3.0650   53.7172 C.ar    1  ZINC000504860563   -0.1700
      8 C8        -10.2933    2.2869   52.7477 C.ar    1  ZINC000504860563    0.1400
      9 O9        -10.8860    2.0697   51.5471 O.3     1  ZINC000504860563   -0.2600
     10 C10       -12.2324    1.5910   51.5655 C.3     1  ZINC000504860563   -0.0100
     11 C11       -12.2478    0.1291   52.0167 C.3     1  ZINC000504860563    0.2800
     12 F12       -11.7049    0.0322   53.3025 F       1  ZINC000504860563   -0.1900
     13 F13       -13.5654   -0.3409   52.0303 F       1  ZINC000504860563   -0.1900
     14 N14        -7.3425    1.4028   51.3063 N.am    1  ZINC000504860563   -0.6000
     15 C15        -6.8928    2.7845   51.5243 C.3     1  ZINC000504860563    0.0800
     16 C16        -5.3856    2.7750   51.7983 C.3     1  ZINC000504860563   -0.1500
     17 C17        -4.6680    2.0534   50.6553 C.3     1  ZINC000504860563    0.1600
     18 N18        -3.2233    2.0714   50.8975 N.pl3   1  ZINC000504860563   -0.3600
     19 C19        -2.5624    2.9360   51.6971 C.2     1  ZINC000504860563    0.0700
     20 C20        -1.2474    2.6184   51.6500 C.2     1  ZINC000504860563   -0.1900
     21 Cl21        0.0302    3.4271   52.5029 Cl      1  ZINC000504860563   -0.0400
     22 C22        -1.0999    1.5225   50.7924 C.2     1  ZINC000504860563    0.0600
     23 N23        -2.2840    1.1909   50.3452 N.2     1  ZINC000504860563   -0.2800
     24 C24        -5.1543    0.6043   50.5796 C.3     1  ZINC000504860563   -0.1400
     25 C25        -6.6548    0.5872   50.2961 C.3     1  ZINC000504860563    0.1200
     26 H26        -8.5353    2.8244   56.0836 H       1  ZINC000504860563    0.1700
     27 H27       -10.7366    3.8596   55.6974 H       1  ZINC000504860563    0.1500
     28 H28       -11.8876    3.5101   53.5279 H       1  ZINC000504860563    0.1500
     29 H29       -12.8220    2.1913   52.2585 H       1  ZINC000504860563    0.1000
     30 H30       -12.6588    1.6671   50.5653 H       1  ZINC000504860563    0.1000
     31 H31       -11.6552   -0.4706   51.3260 H       1  ZINC000504860563    0.1300
     32 H32        -7.0989    3.3804   50.6353 H       1  ZINC000504860563    0.0700
     33 H33        -7.4172    3.2086   52.3806 H       1  ZINC000504860563    0.1600
     34 H34        -5.0218    3.8003   51.8665 H       1  ZINC000504860563    0.0900
     35 H35        -5.1895    2.2557   52.7363 H       1  ZINC000504860563    0.0700
     36 H36        -4.8847    2.5587   49.7141 H       1  ZINC000504860563    0.1100
     37 H37        -3.0039    3.7375   52.2708 H       1  ZINC000504860563    0.1800
     38 H38        -0.1696    1.0326   50.5451 H       1  ZINC000504860563    0.1900
     39 H39        -4.6258    0.0846   49.7804 H       1  ZINC000504860563    0.0900
     40 H40        -4.9604    0.1054   51.5291 H       1  ZINC000504860563    0.0800
     41 H41        -7.0232   -0.4377   50.3395 H       1  ZINC000504860563    0.1000
     42 H42        -6.8447    1.0044   49.3071 H       1  ZINC000504860563    0.0800
@<TRIPOS>BOND
     1     1     2    2
     2     2     3    1
     3     2    14   am
     4     3     8   ar
     5     3     4   ar
     6     4     5   ar
     7     5     6   ar
     8     5    26    1
     9     6     7   ar
    10     6    27    1
    11     7     8   ar
    12     7    28    1
    13     8     9    1
    14     9    10    1
    15    10    11    1
    16    10    29    1
    17    10    30    1
    18    11    12    1
    19    11    13    1
    20    11    31    1
    21    14    25    1
    22    14    15    1
    23    15    16    1
    24    15    32    1
    25    15    33    1
    26    16    17    1
    27    16    34    1
    28    16    35    1
    29    17    18    1
    30    17    24    1
    31    17    36    1
    32    18    23    1
    33    18    19    1
    34    19    20    2
    35    19    37    1
    36    20    21    1
    37    20    22    1
    38    22    23    2
    39    22    38    1
    40    24    25    1
    41    24    39    1
    42    24    40    1
    43    25    41    1
    44    25    42    1
@<TRIPOS>SUBSTRUCTURE
     1 ZINC000504860563        1 TEMP              0 ****  ****    0 ROOT


##########                                Name:    ZINC000840649129
##########                DOCK_Rotatable_Bonds:                   8
##########                         Heavy_Atoms:                  26
##########                    Molecular_Weight:             376.839
##########                DOCK_Rotatable_Bonds:                   8
##########                       Formal_Charge:          -0.0199998
##########                     HBond_Acceptors:                   7
##########                        HBond_Donors:                   3
##########                         Heavy_Atoms:                  26
##########                          Grid_Score:          -28.354094
##########                     Grid_vdw_energy:          -28.243271
##########                      Grid_es_energy:           -0.110822
##########           Internal_energy_repulsive:          168.459229

@<TRIPOS>MOLECULE
ZINC000840649129
 47 48 1 0 0
SMALL
USER_CHARGES


@<TRIPOS>ATOM
      1 C1         -5.4251   -0.0225   50.4373 C.3     1  ZINC000840649129    0.0200
      2 O2         -4.1102    0.4620   50.1578 O.3     1  ZINC000840649129   -0.2900
      3 C3         -3.7955    1.6961   50.6272 C.ar    1  ZINC000840649129    0.1400
      4 C4         -4.7049    2.3965   51.4047 C.ar    1  ZINC000840649129   -0.1700
      5 C5         -4.3868    3.6517   51.8830 C.ar    1  ZINC000840649129   -0.1200
      6 C6         -3.1531    4.2234   51.5900 C.ar    1  ZINC000840649129    0.1700
      7 N7         -2.8396    5.4965   52.0796 N.pl3   1  ZINC000840649129   -0.8800
      8 C8         -2.2345    3.5357   50.8158 C.ar    1  ZINC000840649129   -0.1000
      9 C9         -2.5479    2.2630   50.3318 C.ar    1  ZINC000840649129   -0.1200
     10 C10        -1.5751    1.5239   49.5071 C.2     1  ZINC000840649129    0.5100
     11 O11        -1.2761    0.3823   49.7969 O.2     1  ZINC000840649129   -0.4800
     12 O12        -1.0174    2.1141   48.4318 O.3     1  ZINC000840649129   -0.3200
     13 C13        -0.1621    1.2896   47.5967 C.3     1  ZINC000840649129    0.0800
     14 H14        -0.5523    0.2722   47.5698 H       1  ZINC000840649129    0.1200
     15 C15         1.2336    1.2775   48.1649 C.2     1  ZINC000840649129    0.5200
     16 O16         2.0956    0.6034   47.6417 O.2     1  ZINC000840649129   -0.4900
     17 N17         1.5241    2.0159   49.2543 N.am    1  ZINC000840649129   -0.6600
     18 C18         2.8206    2.0047   49.7821 C.ar    1  ZINC000840649129    0.1600
     19 C19         3.8099    1.2390   49.1805 C.ar    1  ZINC000840649129   -0.1400
     20 C20         5.0887    1.2302   49.7035 C.ar    1  ZINC000840649129   -0.0900
     21 C21         5.3842    1.9830   50.8248 C.ar    1  ZINC000840649129   -0.1300
     22 C22         4.4013    2.7470   51.4274 C.ar    1  ZINC000840649129   -0.0900
     23 C23         3.1217    2.7648   50.9062 C.ar    1  ZINC000840649129   -0.0700
     24 Cl24        1.8883    3.7243   51.6625 Cl      1  ZINC000840649129   -0.0700
     25 C25        -0.1302    1.8615   46.1780 C.3     1  ZINC000840649129   -0.1100
     26 C26        -1.4382    1.5202   45.4612 C.3     1  ZINC000840649129   -0.1600
     27 C27         0.0334    3.3813   46.2443 C.3     1  ZINC000840649129   -0.1500
     28 H28        -5.5451   -1.0169   50.0070 H       1  ZINC000840649129    0.1000
     29 H29        -5.5720   -0.0734   51.5161 H       1  ZINC000840649129    0.0600
     30 H30        -6.1614    0.6530   50.0018 H       1  ZINC000840649129    0.0600
     31 H31        -5.6648    1.9591   51.6363 H       1  ZINC000840649129    0.1400
     32 H32        -5.0997    4.1928   52.4877 H       1  ZINC000840649129    0.1300
     33 H33        -3.4823    5.9792   52.6225 H       1  ZINC000840649129    0.4000
     34 H34        -1.9796    5.8962   51.8759 H       1  ZINC000840649129    0.4000
     35 H35        -1.2767    3.9804   50.5893 H       1  ZINC000840649129    0.1400
     36 H36         0.8349    2.5552   49.6726 H       1  ZINC000840649129    0.4200
     37 H37         3.5801    0.6502   48.3048 H       1  ZINC000840649129    0.1700
     38 H38         5.8584    0.6343   49.2359 H       1  ZINC000840649129    0.1300
     39 H39         6.3847    1.9742   51.2312 H       1  ZINC000840649129    0.1300
     40 H40         4.6352    3.3337   52.3034 H       1  ZINC000840649129    0.1400
     41 H41         0.7075    1.4293   45.6308 H       1  ZINC000840649129    0.0900
     42 H42        -2.2819    1.8414   46.0720 H       1  ZINC000840649129    0.0700
     43 H43        -1.4699    2.0326   44.4996 H       1  ZINC000840649129    0.0800
     44 H44        -1.4945    0.4435   45.3012 H       1  ZINC000840649129    0.0600
     45 H45         0.9652    3.6244   46.7550 H       1  ZINC000840649129    0.0500
     46 H46         0.0561    3.7887   45.2335 H       1  ZINC000840649129    0.0600
     47 H47        -0.8043    3.8135   46.7916 H       1  ZINC000840649129    0.0700
@<TRIPOS>BOND
     1     1     2    1
     2     1    28    1
     3     1    29    1
     4     1    30    1
     5     2     3    1
     6     3     9   ar
     7     3     4   ar
     8     4     5   ar
     9     4    31    1
    10     5     6   ar
    11     5    32    1
    12     6     7    1
    13     6     8   ar
    14     7    33    1
    15     7    34    1
    16     8     9   ar
    17     8    35    1
    18     9    10    1
    19    10    11    2
    20    10    12    1
    21    12    13    1
    22    13    14    1
    23    13    15    1
    24    13    25    1
    25    15    16    2
    26    15    17   am
    27    17    18    1
    28    17    36    1
    29    18    23   ar
    30    18    19   ar
    31    19    20   ar
    32    19    37    1
    33    20    21   ar
    34    20    38    1
    35    21    22   ar
    36    21    39    1
    37    22    23   ar
    38    22    40    1
    39    23    24    1
    40    25    26    1
    41    25    27    1
    42    25    41    1
    43    26    42    1
    44    26    43    1
    45    26    44    1
    46    27    45    1
    47    27    46    1
    48    27    47    1
@<TRIPOS>SUBSTRUCTURE
     1 ZINC000840649129        1 TEMP              0 ****  ****    0 ROOT


##########                                Name:    ZINC000123469372
##########                DOCK_Rotatable_Bonds:                   7
##########                         Heavy_Atoms:                  25
##########                    Molecular_Weight:             341.382
##########                DOCK_Rotatable_Bonds:                   7
##########                       Formal_Charge:          -0.0300001
##########                     HBond_Acceptors:                   5
##########                        HBond_Donors:                   2
##########                         Heavy_Atoms:                  25
##########                          Grid_Score:          -28.299519
##########                     Grid_vdw_energy:          -27.809214
##########                      Grid_es_energy:           -0.490304
##########           Internal_energy_repulsive:            7.576270

@<TRIPOS>MOLECULE
ZINC000123469372
 45 47 1 0 0
SMALL
USER_CHARGES


@<TRIPOS>ATOM
      1 C1          2.0142    3.7740   52.5569 C.3     1  ZINC000123469372   -0.1700
      2 C2          1.9474    2.6457   51.5257 C.3     1  ZINC000123469372    0.1500
      3 H3          2.2389    3.0293   50.5480 H       1  ZINC000123469372    0.0900
      4 C4          2.9001    1.5215   51.9373 C.3     1  ZINC000123469372   -0.1600
      5 C5          2.8957    0.4309   50.8642 C.3     1  ZINC000123469372    0.1500
      6 H6          1.8795    0.0621   50.7251 H       1  ZINC000123469372    0.1100
      7 O7          3.7410   -0.6454   51.2754 O.3     1  ZINC000123469372   -0.5500
      8 C8          3.4051    1.0018   49.5658 C.ar    1  ZINC000123469372   -0.1200
      9 C9          4.6708    1.5539   49.5028 C.ar    1  ZINC000123469372   -0.1100
     10 C10         5.1380    2.0775   48.3118 C.ar    1  ZINC000123469372   -0.1200
     11 C11         4.3396    2.0487   47.1837 C.ar    1  ZINC000123469372   -0.1200
     12 C12         3.0742    1.4958   47.2464 C.ar    1  ZINC000123469372   -0.1200
     13 C13         2.6086    0.9683   48.4364 C.ar    1  ZINC000123469372   -0.1100
     14 N14         0.5792    2.1262   51.4583 N.am    1  ZINC000123469372   -0.7100
     15 C15        -0.3692    2.8105   50.7886 C.2     1  ZINC000123469372    0.5700
     16 O16        -0.0894    3.8609   50.2409 O.2     1  ZINC000123469372   -0.5400
     17 C17        -1.7345    2.2911   50.7198 C.2     1  ZINC000123469372   -0.2200
     18 C18        -2.6887    2.7713   51.5549 C.2     1  ZINC000123469372    0.0000
     19 C19        -4.0405    2.1991   51.4563 C.ar    1  ZINC000123469372   -0.1200
     20 C20        -5.1440    2.8377   52.0202 C.ar    1  ZINC000123469372   -0.0900
     21 C21        -6.3954    2.2634   51.9036 C.ar    1  ZINC000123469372    0.0700
     22 F22        -7.4698    2.8762   52.4469 F       1  ZINC000123469372   -0.1400
     23 C23        -6.5536    1.0607   51.2307 C.ar    1  ZINC000123469372   -0.1100
     24 C24        -5.4645    0.4200   50.6686 C.ar    1  ZINC000123469372   -0.1200
     25 C25        -4.2047    0.9803   50.7751 C.ar    1  ZINC000123469372    0.1300
     26 O26        -3.1172    0.3761   50.2352 O.3     1  ZINC000123469372   -0.3000
     27 C27        -2.0885    1.2244   49.7165 C.3     1  ZINC000123469372    0.1100
     28 H28         3.0322    4.1605   52.6071 H       1  ZINC000123469372    0.0700
     29 H29         1.3355    4.5748   52.2637 H       1  ZINC000123469372    0.0600
     30 H30         1.7227    3.3904   53.5347 H       1  ZINC000123469372    0.0600
     31 H31         3.9084    1.9210   52.0453 H       1  ZINC000123469372    0.0900
     32 H32         2.5735    1.0979   52.8871 H       1  ZINC000123469372    0.0800
     33 H33         4.5792   -0.3606   51.6646 H       1  ZINC000123469372    0.3700
     34 H34         5.2946    1.5764   50.3841 H       1  ZINC000123469372    0.1200
     35 H35         6.1266    2.5095   48.2628 H       1  ZINC000123469372    0.1200
     36 H36         4.7043    2.4585   46.2534 H       1  ZINC000123469372    0.1200
     37 H37         2.4503    1.4735   46.3652 H       1  ZINC000123469372    0.1200
     38 H38         1.6200    0.5362   48.4855 H       1  ZINC000123469372    0.1200
     39 H39         0.3559    1.2898   51.8958 H       1  ZINC000123469372    0.4000
     40 H40        -2.4635    3.5488   52.2699 H       1  ZINC000123469372    0.1500
     41 H41        -5.0217    3.7740   52.5445 H       1  ZINC000123469372    0.1500
     42 H42        -7.5360    0.6206   51.1453 H       1  ZINC000123469372    0.1500
     43 H43        -5.5977   -0.5163   50.1472 H       1  ZINC000123469372    0.1500
     44 H44        -2.4359    1.6895   48.7940 H       1  ZINC000123469372    0.0800
     45 H45        -1.2020    0.6269   49.5035 H       1  ZINC000123469372    0.1100
@<TRIPOS>BOND
     1     1     2    1
     2     1    28    1
     3     1    29    1
     4     1    30    1
     5     2     3    1
     6     2     4    1
     7     2    14    1
     8     4     5    1
     9     4    31    1
    10     4    32    1
    11     5     6    1
    12     5     7    1
    13     5     8    1
    14     7    33    1
    15     8    13   ar
    16     8     9   ar
    17     9    10   ar
    18     9    34    1
    19    10    11   ar
    20    10    35    1
    21    11    12   ar
    22    11    36    1
    23    12    13   ar
    24    12    37    1
    25    13    38    1
    26    14    15   am
    27    14    39    1
    28    15    16    2
    29    15    17    1
    30    17    27    1
    31    17    18    2
    32    18    19    1
    33    18    40    1
    34    19    25   ar
    35    19    20   ar
    36    20    21   ar
    37    20    41    1
    38    21    22    1
    39    21    23   ar
    40    23    24   ar
    41    23    42    1
    42    24    25   ar
    43    24    43    1
    44    25    26    1
    45    26    27    1
    46    27    44    1
    47    27    45    1
@<TRIPOS>SUBSTRUCTURE
     1 ZINC000123469372        1 TEMP              0 ****  ****    0 ROOT


##########                                Name:    ZINC000836820897
##########                DOCK_Rotatable_Bonds:                   5
##########                         Heavy_Atoms:                  22
##########                    Molecular_Weight:             330.355
##########                DOCK_Rotatable_Bonds:                   5
##########                       Formal_Charge:          -0.0200003
##########                     HBond_Acceptors:                   8
##########                        HBond_Donors:                   1
##########                         Heavy_Atoms:                  22
##########                          Grid_Score:          -28.273754
##########                     Grid_vdw_energy:          -28.711449
##########                      Grid_es_energy:            0.437694
##########           Internal_energy_repulsive:            8.641773

@<TRIPOS>MOLECULE
ZINC000836820897
 38 40 1 0 0
SMALL
USER_CHARGES


@<TRIPOS>ATOM
      1 O1          0.3592    0.9396   50.0813 O.2     1  ZINC000836820897   -0.5200
      2 C2         -0.4988    1.5782   49.5034 C.2     1  ZINC000836820897    0.5800
      3 C3         -1.6251    2.1585   50.2630 C.ar    1  ZINC000836820897   -0.1600
      4 C4         -1.4366    3.3159   51.0209 C.ar    1  ZINC000836820897   -0.0100
      5 C5         -2.4914    3.8534   51.7275 C.ar    1  ZINC000836820897   -0.1700
      6 C6         -3.7372    3.2469   51.6865 C.ar    1  ZINC000836820897    0.2200
      7 F7         -4.7675    3.7778   52.3808 F       1  ZINC000836820897   -0.1100
      8 C8         -3.9301    2.0975   50.9349 C.ar    1  ZINC000836820897   -0.7200
      9 S9         -5.5172    1.3337   50.8875 S.o2    1  ZINC000836820897    2.7000
     10 O10        -5.3243    0.0419   50.3279 O.2     1  ZINC000836820897   -0.9400
     11 O11        -6.1040    1.5481   52.1638 O.2     1  ZINC000836820897   -0.9400
     12 N12        -6.4367    2.1811   49.8017 N.am    1  ZINC000836820897   -1.0800
     13 C13        -6.6971    3.6065   50.0174 C.3     1  ZINC000836820897    0.0700
     14 C14        -7.9653    4.1950   49.3959 C.3     1  ZINC000836820897   -0.1800
     15 C15        -7.8831    3.9810   50.9085 C.3     1  ZINC000836820897   -0.1900
     16 C16        -2.8838    1.5545   50.2209 C.ar    1  ZINC000836820897    0.0600
     17 N17        -0.4194    1.7616   48.1705 N.am    1  ZINC000836820897   -0.6200
     18 C18         0.6388    1.2373   47.2949 C.3     1  ZINC000836820897    0.0900
     19 C19         0.2997    1.6740   45.8541 C.3     1  ZINC000836820897   -0.1600
     20 C20        -1.2277    1.9383   45.9215 C.3     1  ZINC000836820897    0.0800
     21 H21        -1.7898    1.0104   45.8162 H       1  ZINC000836820897    0.1100
     22 F22        -1.6184    2.8707   44.9545 F       1  ZINC000836820897   -0.1900
     23 C23        -1.3828    2.5159   47.3481 C.3     1  ZINC000836820897    0.0800
     24 H24        -0.4663    3.7889   51.0538 H       1  ZINC000836820897    0.1500
     25 H25        -2.3466    4.7485   52.3144 H       1  ZINC000836820897    0.1600
     26 H26        -6.8029    1.7336   49.0229 H       1  ZINC000836820897    0.4200
     27 H27        -5.8144    4.2445   50.0600 H       1  ZINC000836820897    0.1400
     28 H28        -7.9170    5.2203   49.0292 H       1  ZINC000836820897    0.1100
     29 H29        -8.6058    3.5215   48.8264 H       1  ZINC000836820897    0.1000
     30 H30        -8.4695    3.1669   51.3344 H       1  ZINC000836820897    0.1000
     31 H31        -7.7807    4.8656   51.5372 H       1  ZINC000836820897    0.1000
     32 H32        -3.0351    0.6595   49.6357 H       1  ZINC000836820897    0.1600
     33 H33         1.6031    1.6507   47.5903 H       1  ZINC000836820897    0.0800
     34 H34         0.6653    0.1492   47.3559 H       1  ZINC000836820897    0.0800
     35 H35         0.8374    2.5847   45.5905 H       1  ZINC000836820897    0.0900
     36 H36         0.5219    0.8752   45.1465 H       1  ZINC000836820897    0.1000
     37 H37        -2.3990    2.3621   47.7113 H       1  ZINC000836820897    0.1000
     38 H38        -1.1323    3.5767   47.3572 H       1  ZINC000836820897    0.0900
@<TRIPOS>BOND
     1     1     2    2
     2     2     3    1
     3     2    17   am
     4     3    16   ar
     5     3     4   ar
     6     4     5   ar
     7     4    24    1
     8     5     6   ar
     9     5    25    1
    10     6     7    1
    11     6     8   ar
    12     8     9    1
    13     8    16   ar
    14     9    10    2
    15     9    11    2
    16     9    12   am
    17    12    13    1
    18    12    26    1
    19    13    15    1
    20    13    14    1
    21    13    27    1
    22    14    15    1
    23    14    28    1
    24    14    29    1
    25    15    30    1
    26    15    31    1
    27    16    32    1
    28    17    23    1
    29    17    18    1
    30    18    19    1
    31    18    33    1
    32    18    34    1
    33    19    20    1
    34    19    35    1
    35    19    36    1
    36    20    21    1
    37    20    22    1
    38    20    23    1
    39    23    37    1
    40    23    38    1
@<TRIPOS>SUBSTRUCTURE
     1 ZINC000836820897        1 TEMP              0 ****  ****    0 ROOT


##########                                Name:    ZINC000629379364
##########                DOCK_Rotatable_Bonds:                   5
##########                         Heavy_Atoms:                  23
##########                    Molecular_Weight:             386.261
##########                DOCK_Rotatable_Bonds:                   5
##########                       Formal_Charge:               -0.02
##########                     HBond_Acceptors:                   5
##########                        HBond_Donors:                   1
##########                         Heavy_Atoms:                  23
##########                          Grid_Score:          -28.242073
##########                     Grid_vdw_energy:          -19.919977
##########                      Grid_es_energy:           -8.322095
##########           Internal_energy_repulsive:           27.461025

@<TRIPOS>MOLECULE
ZINC000629379364
 44 46 1 0 0
SMALL
USER_CHARGES


@<TRIPOS>ATOM
      1 O1         -9.1294   -1.4838   66.0092 O.co2   1  ZINC000629379364   -0.6800
      2 C2         -8.5024   -0.4754   66.2856 C.2     1  ZINC000629379364    0.5000
      3 O3         -7.6963   -0.4902   67.2003 O.co2   1  ZINC000629379364   -0.6900
      4 C4         -8.7190    0.7877   65.4926 C.3     1  ZINC000629379364   -0.1600
      5 H5         -7.7634    1.2769   65.3036 H       1  ZINC000629379364    0.0800
      6 C6         -9.6530    1.7380   66.2623 C.3     1  ZINC000629379364   -0.1300
      7 C7        -10.0070    2.9625   65.4237 C.3     1  ZINC000629379364   -0.0100
      8 N8        -10.5755    2.5853   64.1152 N.4     1  ZINC000629379364   -0.3700
      9 H9        -10.7972    3.4151   63.5858 H       1  ZINC000629379364    0.4200
     10 C10       -11.7882    1.7799   64.3113 C.3     1  ZINC000629379364   -0.0200
     11 C11       -12.9585    2.6985   64.6681 C.3     1  ZINC000629379364    0.0300
     12 O12       -13.3318    3.4623   63.5195 O.3     1  ZINC000629379364   -0.3200
     13 C13       -13.9118    2.7879   62.4921 C.ar    1  ZINC000629379364    0.1600
     14 C14       -14.1264    3.4229   61.2781 C.ar    1  ZINC000629379364   -0.2300
     15 C15       -14.7172    2.7343   60.2332 C.ar    1  ZINC000629379364    0.1500
     16 F16       -14.9267    3.3519   59.0500 F       1  ZINC000629379364   -0.1200
     17 C17       -15.0933    1.4122   60.3999 C.ar    1  ZINC000629379364   -0.1600
     18 C18       -14.8800    0.7781   61.6109 C.ar    1  ZINC000629379364   -0.0300
     19 Br19      -15.3947   -1.0276   61.8352 Br      1  ZINC000629379364   -0.0100
     20 C20       -14.2848    1.4614   62.6547 C.ar    1  ZINC000629379364   -0.1300
     21 C21        -9.5704    1.8045   63.4122 C.3     1  ZINC000629379364   -0.0100
     22 H22        -8.6232    2.3437   63.3959 H       1  ZINC000629379364    0.1400
     23 C23        -9.9357    1.3423   61.9978 C.3     1  ZINC000629379364   -0.1300
     24 C24        -8.9978    0.1248   61.7753 C.3     1  ZINC000629379364   -0.1200
     25 C25        -8.6325   -0.4081   63.1827 C.3     1  ZINC000629379364   -0.1100
     26 C26        -9.4052    0.4633   64.1768 C.3     1  ZINC000629379364   -0.0700
     27 H27       -10.3935    0.0389   64.3531 H       1  ZINC000629379364    0.1000
     28 H28       -10.5683    1.2063   66.5223 H       1  ZINC000629379364    0.0800
     29 H29        -9.1573    2.0628   67.1771 H       1  ZINC000629379364    0.1100
     30 H30       -10.7348    3.5661   65.9663 H       1  ZINC000629379364    0.1200
     31 H31        -9.1065    3.5548   65.2622 H       1  ZINC000629379364    0.1300
     32 H32       -12.0176    1.2391   63.3931 H       1  ZINC000629379364    0.1400
     33 H33       -11.6249    1.0684   65.1209 H       1  ZINC000629379364    0.1700
     34 H34       -13.8062    2.0965   64.9955 H       1  ZINC000629379364    0.1100
     35 H35       -12.6598    3.3724   65.4711 H       1  ZINC000629379364    0.0900
     36 H36       -13.8329    4.4542   61.1484 H       1  ZINC000629379364    0.1500
     37 H37       -15.5539    0.8754   59.5838 H       1  ZINC000629379364    0.1500
     38 H38       -14.1184    0.9654   63.5996 H       1  ZINC000629379364    0.1500
     39 H39       -10.9810    1.0374   61.9498 H       1  ZINC000629379364    0.0800
     40 H40        -9.7279    2.1268   61.2701 H       1  ZINC000629379364    0.0900
     41 H41        -9.5155   -0.6471   61.2059 H       1  ZINC000629379364    0.0800
     42 H42        -8.0966    0.4382   61.2484 H       1  ZINC000629379364    0.0800
     43 H43        -8.9230   -1.4544   63.2772 H       1  ZINC000629379364    0.0900
     44 H44        -7.5636   -0.2946   63.3635 H       1  ZINC000629379364    0.0800
@<TRIPOS>BOND
     1     1     2   ar
     2     2     3   ar
     3     2     4    1
     4     4     5    1
     5     4    26    1
     6     4     6    1
     7     6     7    1
     8     6    28    1
     9     6    29    1
    10     7     8    1
    11     7    30    1
    12     7    31    1
    13     8     9    1
    14     8    10    1
    15     8    21    1
    16    10    11    1
    17    10    32    1
    18    10    33    1
    19    11    12    1
    20    11    34    1
    21    11    35    1
    22    12    13    1
    23    13    20   ar
    24    13    14   ar
    25    14    15   ar
    26    14    36    1
    27    15    16    1
    28    15    17   ar
    29    17    18   ar
    30    17    37    1
    31    18    19    1
    32    18    20   ar
    33    20    38    1
    34    21    22    1
    35    21    26    1
    36    21    23    1
    37    23    24    1
    38    23    39    1
    39    23    40    1
    40    24    25    1
    41    24    41    1
    42    24    42    1
    43    25    26    1
    44    25    43    1
    45    25    44    1
    46    26    27    1
@<TRIPOS>SUBSTRUCTURE
     1 ZINC000629379364        1 TEMP              0 ****  ****    0 ROOT


##########                                Name:    ZINC000179743483
##########                DOCK_Rotatable_Bonds:                   5
##########                         Heavy_Atoms:                  23
##########                    Molecular_Weight:             393.347
##########                DOCK_Rotatable_Bonds:                   5
##########                       Formal_Charge:          -0.0199999
##########                     HBond_Acceptors:                   4
##########                        HBond_Donors:                   0
##########                         Heavy_Atoms:                  23
##########                          Grid_Score:          -28.241331
##########                     Grid_vdw_energy:          -28.427170
##########                      Grid_es_energy:            0.185840
##########           Internal_energy_repulsive:           22.440783

@<TRIPOS>MOLECULE
ZINC000179743483
 44 46 1 0 0
SMALL
USER_CHARGES


@<TRIPOS>ATOM
      1 C1          3.2214    1.4051   49.4282 C.3     1  ZINC000179743483   -0.1400
      2 C2          2.2102    1.8294   48.3611 C.3     1  ZINC000179743483   -0.1000
      3 H3          2.1201    2.9157   48.3575 H       1  ZINC000179743483    0.1000
      4 C4          2.6878    1.3526   46.9879 C.3     1  ZINC000179743483   -0.0700
      5 C5          2.0690    2.2110   45.9150 C.ar    1  ZINC000179743483   -0.0600
      6 C6          2.7012    3.3713   45.5081 C.ar    1  ZINC000179743483   -0.1100
      7 C7          2.1342    4.1587   44.5237 C.ar    1  ZINC000179743483   -0.0900
      8 C8          0.9341    3.7857   43.9457 C.ar    1  ZINC000179743483   -0.0900
      9 Br9         0.1583    4.8622   42.5985 Br      1  ZINC000179743483   -0.0500
     10 C10         0.3020    2.6248   44.3531 C.ar    1  ZINC000179743483   -0.0900
     11 C11         0.8723    1.8353   45.3338 C.ar    1  ZINC000179743483   -0.1100
     12 C12         0.8688    1.2151   48.6676 C.2     1  ZINC000179743483    0.5200
     13 O13         0.4763    0.2641   48.0254 O.2     1  ZINC000179743483   -0.5300
     14 N14         0.1051    1.7224   49.6555 N.am    1  ZINC000179743483   -0.6100
     15 C15         0.5670    2.8741   50.4423 C.3     1  ZINC000179743483    0.1000
     16 C16        -0.5109    3.9620   50.4034 C.3     1  ZINC000179743483   -0.1400
     17 C17        -1.8424    3.3724   50.8742 C.3     1  ZINC000179743483   -0.1100
     18 C18        -2.2630    2.2418   49.9325 C.3     1  ZINC000179743483   -0.0200
     19 H19        -2.3529    2.6285   48.9173 H       1  ZINC000179743483    0.0900
     20 C20        -3.5903    1.6840   50.3777 C.2     1  ZINC000179743483    0.0500
     21 N21        -4.0207    0.4980   50.1081 N.2     1  ZINC000179743483   -0.4700
     22 C22        -5.2076    0.1685   50.5767 C.2     1  ZINC000179743483    0.0400
     23 C23        -5.8118    1.1303   51.2808 C.2     1  ZINC000179743483   -0.2600
     24 S24        -4.7407    2.5288   51.3192 S.3     1  ZINC000179743483    0.1300
     25 C25        -1.2077    1.1382   49.9621 C.3     1  ZINC000179743483    0.1200
     26 H26         3.2546    0.3171   49.4850 H       1  ZINC000179743483    0.0700
     27 H27         4.2083    1.7856   49.1653 H       1  ZINC000179743483    0.0700
     28 H28         2.9214    1.8103   50.3946 H       1  ZINC000179743483    0.0600
     29 H29         3.7736    1.4299   46.9338 H       1  ZINC000179743483    0.0900
     30 H30         2.3896    0.3147   46.8399 H       1  ZINC000179743483    0.0800
     31 H31         3.6379    3.6625   45.9597 H       1  ZINC000179743483    0.1300
     32 H32         2.6279    5.0652   44.2062 H       1  ZINC000179743483    0.1300
     33 H33        -0.6350    2.3332   43.9021 H       1  ZINC000179743483    0.1300
     34 H34         0.3788    0.9287   45.6520 H       1  ZINC000179743483    0.1300
     35 H35         0.7387    2.5666   51.4739 H       1  ZINC000179743483    0.0700
     36 H36         1.4922    3.2609   50.0153 H       1  ZINC000179743483    0.0900
     37 H37        -0.2235    4.7825   51.0609 H       1  ZINC000179743483    0.0800
     38 H38        -0.6173    4.3324   49.3838 H       1  ZINC000179743483    0.0700
     39 H39        -1.7286    2.9799   51.8847 H       1  ZINC000179743483    0.0800
     40 H40        -2.6056    4.1506   50.8709 H       1  ZINC000179743483    0.0700
     41 H41        -5.6552   -0.7993   50.4054 H       1  ZINC000179743483    0.1800
     42 H42        -6.7836    1.0611   51.7471 H       1  ZINC000179743483    0.1800
     43 H43        -1.4530    0.3781   49.2203 H       1  ZINC000179743483    0.0900
     44 H44        -1.1779    0.6875   50.9541 H       1  ZINC000179743483    0.0800
@<TRIPOS>BOND
     1     1     2    1
     2     1    26    1
     3     1    27    1
     4     1    28    1
     5     2     3    1
     6     2     4    1
     7     2    12    1
     8     4     5    1
     9     4    29    1
    10     4    30    1
    11     5    11   ar
    12     5     6   ar
    13     6     7   ar
    14     6    31    1
    15     7     8   ar
    16     7    32    1
    17     8     9    1
    18     8    10   ar
    19    10    11   ar
    20    10    33    1
    21    11    34    1
    22    12    13    2
    23    12    14   am
    24    14    25    1
    25    14    15    1
    26    15    16    1
    27    15    35    1
    28    15    36    1
    29    16    17    1
    30    16    37    1
    31    16    38    1
    32    17    18    1
    33    17    39    1
    34    17    40    1
    35    18    19    1
    36    18    20    1
    37    18    25    1
    38    20    24    1
    39    20    21    2
    40    21    22    1
    41    22    23    2
    42    22    41    1
    43    23    24    1
    44    23    42    1
    45    25    43    1
    46    25    44    1
@<TRIPOS>SUBSTRUCTURE
     1 ZINC000179743483        1 TEMP              0 ****  ****    0 ROOT


##########                                Name:    ZINC000337709254
##########                DOCK_Rotatable_Bonds:                   7
##########                         Heavy_Atoms:                  22
##########                    Molecular_Weight:              329.42
##########                DOCK_Rotatable_Bonds:                   7
##########                       Formal_Charge:           0.0300004
##########                     HBond_Acceptors:                   8
##########                        HBond_Donors:                   2
##########                         Heavy_Atoms:                  22
##########                          Grid_Score:          -28.197470
##########                     Grid_vdw_energy:          -27.195709
##########                      Grid_es_energy:           -1.001760
##########           Internal_energy_repulsive:           10.637549

@<TRIPOS>MOLECULE
ZINC000337709254
 45 46 1 0 0
SMALL
USER_CHARGES


@<TRIPOS>ATOM
      1 C1         -0.2431    2.7431   49.4967 C.3     1  ZINC000337709254   -0.6700
      2 S2         -1.2536    1.4048   48.8049 S.o2    1  ZINC000337709254    2.6100
      3 O3         -2.1819    1.9186   47.8596 O.2     1  ZINC000337709254   -0.9500
      4 O4         -0.4453    0.2767   48.4995 O.2     1  ZINC000337709254   -0.9500
      5 N5         -2.1955    0.9017   50.0705 N.am    1  ZINC000337709254   -1.1200
      6 C6         -3.1115    1.8420   50.7210 C.3     1  ZINC000337709254    0.1200
      7 C7         -4.5311    1.6162   50.1969 C.3     1  ZINC000337709254   -0.1100
      8 H8         -4.5450    1.6535   49.1075 H       1  ZINC000337709254    0.1100
      9 C9         -5.0855    0.2603   50.7000 C.3     1  ZINC000337709254   -0.1200
     10 C10        -6.6184    0.4675   50.6217 C.3     1  ZINC000337709254   -0.1200
     11 C11        -6.8249    1.9326   51.0583 C.3     1  ZINC000337709254   -0.1400
     12 C12        -5.4971    2.6652   50.7854 C.3     1  ZINC000337709254    0.1500
     13 H13        -5.6564    3.4733   50.0715 H       1  ZINC000337709254    0.1000
     14 N14        -4.9533    3.2007   52.0358 N.am    1  ZINC000337709254   -0.7200
     15 C15        -5.3377    4.4166   52.4718 C.2     1  ZINC000337709254    0.5300
     16 O16        -6.1328    5.0682   51.8282 O.2     1  ZINC000337709254   -0.5100
     17 C17        -4.7797    4.9667   53.7590 C.3     1  ZINC000337709254    0.0200
     18 C18        -4.8440    6.4371   53.7351 C.1     1  ZINC000337709254    0.2000
     19 N19        -4.8937    7.5719   53.7167 N.1     1  ZINC000337709254   -0.3900
     20 C20        -5.5972    4.4354   54.9403 C.3     1  ZINC000337709254   -0.1500
     21 C21        -4.9759    4.9355   56.2470 C.3     1  ZINC000337709254    0.0600
     22 O22        -3.6129    4.5118   56.3177 O.3     1  ZINC000337709254   -0.3700
     23 C23        -2.7895    5.0170   55.2646 C.3     1  ZINC000337709254    0.0600
     24 C24        -3.3231    4.5201   53.9184 C.3     1  ZINC000337709254   -0.1300
     25 H25        -0.8935    3.5383   49.8611 H       1  ZINC000337709254    0.1300
     26 H26         0.3559    2.3570   50.3215 H       1  ZINC000337709254    0.1300
     27 H27         0.4155    3.1383   48.7232 H       1  ZINC000337709254    0.1300
     28 H28        -2.1408   -0.0155   50.3813 H       1  ZINC000337709254    0.4200
     29 H29        -3.0924    1.6813   51.7988 H       1  ZINC000337709254    0.0600
     30 H30        -2.8009    2.8633   50.5003 H       1  ZINC000337709254    0.0900
     31 H31        -4.7715   -0.5524   50.0449 H       1  ZINC000337709254    0.0800
     32 H32        -4.7730    0.0725   51.7273 H       1  ZINC000337709254    0.0700
     33 H33        -6.9716    0.3201   49.6011 H       1  ZINC000337709254    0.0700
     34 H34        -7.1304   -0.2100   51.3050 H       1  ZINC000337709254    0.0700
     35 H35        -7.6263    2.3865   50.4753 H       1  ZINC000337709254    0.0800
     36 H36        -7.0651    1.9753   52.1205 H       1  ZINC000337709254    0.0700
     37 H37        -4.3164    2.6801   52.5499 H       1  ZINC000337709254    0.4000
     38 H38        -6.6235    4.7948   54.8640 H       1  ZINC000337709254    0.0900
     39 H39        -5.5901    3.3455   54.9274 H       1  ZINC000337709254    0.1100
     40 H40        -5.0201    6.0242   56.2773 H       1  ZINC000337709254    0.0500
     41 H41        -5.5282    4.5256   57.0926 H       1  ZINC000337709254    0.1100
     42 H42        -2.8051    6.1068   55.2819 H       1  ZINC000337709254    0.0500
     43 H43        -1.7670    4.6657   55.4023 H       1  ZINC000337709254    0.1100
     44 H44        -3.2700    3.4319   53.8848 H       1  ZINC000337709254    0.1100
     45 H45        -2.7230    4.9401   53.1113 H       1  ZINC000337709254    0.0900
@<TRIPOS>BOND
     1     1     2    1
     2     1    25    1
     3     1    26    1
     4     1    27    1
     5     2     3    2
     6     2     4    2
     7     2     5   am
     8     5     6    1
     9     5    28    1
    10     6     7    1
    11     6    29    1
    12     6    30    1
    13     7     8    1
    14     7    12    1
    15     7     9    1
    16     9    10    1
    17     9    31    1
    18     9    32    1
    19    10    11    1
    20    10    33    1
    21    10    34    1
    22    11    12    1
    23    11    35    1
    24    11    36    1
    25    12    13    1
    26    12    14    1
    27    14    15   am
    28    14    37    1
    29    15    16    2
    30    15    17    1
    31    17    24    1
    32    17    18    1
    33    17    20    1
    34    18    19    3
    35    20    21    1
    36    20    38    1
    37    20    39    1
    38    21    22    1
    39    21    40    1
    40    21    41    1
    41    22    23    1
    42    23    24    1
    43    23    42    1
    44    23    43    1
    45    24    44    1
    46    24    45    1
@<TRIPOS>SUBSTRUCTURE
     1 ZINC000337709254        1 TEMP              0 ****  ****    0 ROOT


##########                                Name:    ZINC000673213454
##########                DOCK_Rotatable_Bonds:                   7
##########                         Heavy_Atoms:                  26
##########                    Molecular_Weight:             360.453
##########                DOCK_Rotatable_Bonds:                   7
##########                       Formal_Charge:          -0.0100001
##########                     HBond_Acceptors:                   6
##########                        HBond_Donors:                   1
##########                         Heavy_Atoms:                  26
##########                          Grid_Score:          -28.183672
##########                     Grid_vdw_energy:          -26.723829
##########                      Grid_es_energy:           -1.459843
##########           Internal_energy_repulsive:           13.938798

@<TRIPOS>MOLECULE
ZINC000673213454
 54 56 1 0 0
SMALL
USER_CHARGES


@<TRIPOS>ATOM
      1 C1         -8.3439    3.1445   59.4401 C.3     1  ZINC000673213454   -0.1700
      2 C2         -7.9781    2.6667   58.0334 C.3     1  ZINC000673213454    0.1400
      3 H3         -6.9874    2.2124   58.0502 H       1  ZINC000673213454    0.0900
      4 C4         -7.9765    3.8586   57.0742 C.3     1  ZINC000673213454   -0.1200
      5 C5         -7.4517    3.4128   55.7079 C.3     1  ZINC000673213454   -0.1300
      6 H6         -8.0183    2.5561   55.3436 H       1  ZINC000673213454    0.0800
      7 C7         -5.9444    3.0697   55.7920 C.3     1  ZINC000673213454   -0.1500
      8 C8         -5.4012    3.6666   54.4688 C.3     1  ZINC000673213454    0.0500
      9 O9         -6.1695    4.8781   54.3053 O.3     1  ZINC000673213454   -0.3800
     10 C10        -7.5218    4.5747   54.6979 C.3     1  ZINC000673213454    0.0500
     11 N11        -8.9609    1.6782   57.5825 N.am    1  ZINC000673213454   -0.6900
     12 C12        -8.7269    0.3635   57.7649 C.2     1  ZINC000673213454    0.5100
     13 O13        -7.7028   -0.0014   58.3040 O.2     1  ZINC000673213454   -0.5100
     14 C14        -9.7287   -0.6449   57.3034 C.2     1  ZINC000673213454    0.5000
     15 O15        -9.6416   -1.1214   56.1907 O.2     1  ZINC000673213454   -0.5200
     16 N16       -10.7288   -1.0252   58.1229 N.am    1  ZINC000673213454   -0.5800
     17 C17       -11.7023   -2.0223   57.6393 C.3     1  ZINC000673213454    0.1100
     18 C18       -12.0380   -3.0423   58.7372 C.3     1  ZINC000673213454   -0.1700
     19 C19       -10.7783   -3.4008   59.4994 C.3     1  ZINC000673213454    0.0800
     20 O20       -10.6514   -2.5237   60.6109 O.3     1  ZINC000673213454   -0.3800
     21 C21       -10.0120   -1.3113   60.4488 C.3     1  ZINC000673213454    0.1500
     22 H22        -9.0059   -1.4797   60.0646 H       1  ZINC000673213454    0.0600
     23 C23        -9.9307   -0.6048   61.7774 C.ar    1  ZINC000673213454   -0.0800
     24 C24       -11.0887   -0.2601   62.4490 C.ar    1  ZINC000673213454   -0.0900
     25 C25       -11.0141    0.3879   63.6677 C.ar    1  ZINC000673213454   -0.1300
     26 C26        -9.7815    0.6912   64.2149 C.ar    1  ZINC000673213454   -0.1200
     27 C27        -8.6234    0.3458   63.5438 C.ar    1  ZINC000673213454   -0.1300
     28 C28        -8.6980   -0.3062   62.3270 C.ar    1  ZINC000673213454   -0.0900
     29 C29       -10.8038   -0.4425   59.4499 C.3     1  ZINC000673213454    0.0700
     30 H30        -9.3346    3.5988   59.4234 H       1  ZINC000673213454    0.0600
     31 H31        -8.3450    2.2954   60.1235 H       1  ZINC000673213454    0.0600
     32 H32        -7.6127    3.8800   59.7756 H       1  ZINC000673213454    0.0700
     33 H33        -8.9920    4.2397   56.9667 H       1  ZINC000673213454    0.0800
     34 H34        -7.3337    4.6441   57.4716 H       1  ZINC000673213454    0.0900
     35 H35        -5.4834    3.5513   56.6543 H       1  ZINC000673213454    0.0800
     36 H36        -5.7924    1.9909   55.8234 H       1  ZINC000673213454    0.0800
     37 H37        -4.3391    3.8948   54.5582 H       1  ZINC000673213454    0.0900
     38 H38        -5.5795    2.9839   53.6379 H       1  ZINC000673213454    0.0600
     39 H39        -8.1031    4.2767   53.8254 H       1  ZINC000673213454    0.0600
     40 H40        -7.9759    5.4471   55.1678 H       1  ZINC000673213454    0.0900
     41 H41        -9.7800    1.9699   57.1527 H       1  ZINC000673213454    0.4100
     42 H42       -12.6156   -1.5117   57.3338 H       1  ZINC000673213454    0.0800
     43 H43       -11.2818   -2.5458   56.7807 H       1  ZINC000673213454    0.0900
     44 H44       -12.7669   -2.6108   59.4230 H       1  ZINC000673213454    0.0800
     45 H45       -12.4552   -3.9408   58.2825 H       1  ZINC000673213454    0.0900
     46 H46       -10.8449   -4.4301   59.8519 H       1  ZINC000673213454    0.1000
     47 H47        -9.9123   -3.2910   58.8466 H       1  ZINC000673213454    0.0500
     48 H48       -12.0518   -0.4971   62.0214 H       1  ZINC000673213454    0.1300
     49 H49       -11.9190    0.6578   64.1921 H       1  ZINC000673213454    0.1200
     50 H50        -9.7232    1.1982   65.1667 H       1  ZINC000673213454    0.1200
     51 H51        -7.6604    0.5830   63.9712 H       1  ZINC000673213454    0.1200
     52 H52        -7.7932   -0.5760   61.8027 H       1  ZINC000673213454    0.1300
     53 H53       -10.3808    0.5618   59.4274 H       1  ZINC000673213454    0.1200
     54 H54       -11.8470   -0.3902   59.7616 H       1  ZINC000673213454    0.0800
@<TRIPOS>BOND
     1     1     2    1
     2     1    30    1
     3     1    31    1
     4     1    32    1
     5     2     3    1
     6     2     4    1
     7     2    11    1
     8     4     5    1
     9     4    33    1
    10     4    34    1
    11     5     6    1
    12     5    10    1
    13     5     7    1
    14     7     8    1
    15     7    35    1
    16     7    36    1
    17     8     9    1
    18     8    37    1
    19     8    38    1
    20     9    10    1
    21    10    39    1
    22    10    40    1
    23    11    12   am
    24    11    41    1
    25    12    13    2
    26    12    14    1
    27    14    15    2
    28    14    16   am
    29    16    29    1
    30    16    17    1
    31    17    18    1
    32    17    42    1
    33    17    43    1
    34    18    19    1
    35    18    44    1
    36    18    45    1
    37    19    20    1
    38    19    46    1
    39    19    47    1
    40    20    21    1
    41    21    22    1
    42    21    23    1
    43    21    29    1
    44    23    28   ar
    45    23    24   ar
    46    24    25   ar
    47    24    48    1
    48    25    26   ar
    49    25    49    1
    50    26    27   ar
    51    26    50    1
    52    27    28   ar
    53    27    51    1
    54    28    52    1
    55    29    53    1
    56    29    54    1
@<TRIPOS>SUBSTRUCTURE
     1 ZINC000673213454        1 TEMP              0 ****  ****    0 ROOT


##########                                Name:    ZINC000057429281
##########                DOCK_Rotatable_Bonds:                  10
##########                         Heavy_Atoms:                  23
##########                    Molecular_Weight:             331.295
##########                DOCK_Rotatable_Bonds:                  10
##########                       Formal_Charge:          -0.0100002
##########                     HBond_Acceptors:                   9
##########                        HBond_Donors:                   5
##########                         Heavy_Atoms:                  23
##########                          Grid_Score:          -28.169300
##########                     Grid_vdw_energy:          -27.848497
##########                      Grid_es_energy:           -0.320803
##########           Internal_energy_repulsive:            9.559812

@<TRIPOS>MOLECULE
ZINC000057429281
 39 39 1 0 0
SMALL
USER_CHARGES


@<TRIPOS>ATOM
      1 C1         -0.0566    3.0901   51.9546 C.3     1  ZINC000057429281   -0.1500
      2 C2         -0.5518    2.6069   50.5901 C.3     1  ZINC000057429281   -0.0400
      3 H3          0.0073    1.7193   50.2940 H       1  ZINC000057429281    0.0900
      4 C4         -0.3435    3.7109   49.5516 C.3     1  ZINC000057429281   -0.1300
      5 C5          0.3968    3.1506   48.3644 C.2     1  ZINC000057429281    0.5200
      6 O6          1.6015    3.2680   48.2905 O.2     1  ZINC000057429281   -0.5300
      7 N7         -0.2801    2.5190   47.3849 N.am    1  ZINC000057429281   -0.7000
      8 C8          0.4393    1.9759   46.2300 C.3     1  ZINC000057429281    0.1100
      9 C9          1.1157    0.6870   46.6203 C.2     1  ZINC000057429281    0.5200
     10 N10         0.5208   -0.1482   47.4947 N.am    1  ZINC000057429281   -0.8500
     11 O11         2.1954    0.4015   46.1475 O.2     1  ZINC000057429281   -0.5100
     12 C12        -0.5341    1.7133   45.1099 C.2     1  ZINC000057429281    0.5300
     13 N13        -0.4742    0.5555   44.4227 N.am    1  ZINC000057429281   -0.8400
     14 O14        -1.3713    2.5439   44.8269 O.2     1  ZINC000057429281   -0.5100
     15 C15        -2.0182    2.2704   50.6783 C.ar    1  ZINC000057429281   -0.0500
     16 C16        -2.9094    3.1937   51.1922 C.ar    1  ZINC000057429281   -0.1200
     17 C17        -4.2545    2.8851   51.2731 C.ar    1  ZINC000057429281   -0.0700
     18 C18        -4.7083    1.6534   50.8398 C.ar    1  ZINC000057429281   -0.1900
     19 C19        -6.1746    1.3168   50.9284 C.3     1  ZINC000057429281    0.5100
     20 F20        -6.3312   -0.0718   50.9941 F       1  ZINC000057429281   -0.1800
     21 F21        -6.7189    1.9024   52.0763 F       1  ZINC000057429281   -0.1800
     22 F22        -6.8348    1.8076   49.7967 F       1  ZINC000057429281   -0.1800
     23 C23        -3.8173    0.7307   50.3246 C.ar    1  ZINC000057429281   -0.0700
     24 C24        -2.4727    1.0407   50.2401 C.ar    1  ZINC000057429281   -0.1100
     25 H25        -0.2049    2.3036   52.6945 H       1  ZINC000057429281    0.0600
     26 H26         1.0041    3.3335   51.8908 H       1  ZINC000057429281    0.0800
     27 H27        -0.6158    3.9777   52.2507 H       1  ZINC000057429281    0.0500
     28 H28        -1.3117    4.0932   49.2285 H       1  ZINC000057429281    0.1000
     29 H29         0.2378    4.5202   49.9932 H       1  ZINC000057429281    0.1000
     30 H30        -1.2437    2.4241   47.4446 H       1  ZINC000057429281    0.4200
     31 H31         1.1893    2.6940   45.8988 H       1  ZINC000057429281    0.1300
     32 H32         0.9560   -0.9779   47.7460 H       1  ZINC000057429281    0.4000
     33 H33        -0.3428    0.0803   47.8730 H       1  ZINC000057429281    0.4100
     34 H34        -1.1008    0.3864   43.7017 H       1  ZINC000057429281    0.4000
     35 H35         0.1953   -0.1088   44.6492 H       1  ZINC000057429281    0.4100
     36 H36        -2.5549    4.1561   51.5308 H       1  ZINC000057429281    0.1400
     37 H37        -4.9507    3.6062   51.6752 H       1  ZINC000057429281    0.1400
     38 H38        -4.1719   -0.2316   49.9856 H       1  ZINC000057429281    0.1400
     39 H39        -1.7766    0.3198   49.8376 H       1  ZINC000057429281    0.1400
@<TRIPOS>BOND
     1     1     2    1
     2     1    25    1
     3     1    26    1
     4     1    27    1
     5     2     3    1
     6     2     4    1
     7     2    15    1
     8     4     5    1
     9     4    28    1
    10     4    29    1
    11     5     6    2
    12     5     7   am
    13     7     8    1
    14     7    30    1
    15     8     9    1
    16     8    12    1
    17     8    31    1
    18     9    10   am
    19     9    11    2
    20    10    32    1
    21    10    33    1
    22    12    13   am
    23    12    14    2
    24    13    34    1
    25    13    35    1
    26    15    24   ar
    27    15    16   ar
    28    16    17   ar
    29    16    36    1
    30    17    18   ar
    31    17    37    1
    32    18    19    1
    33    18    23   ar
    34    19    20    1
    35    19    21    1
    36    19    22    1
    37    23    24   ar
    38    23    38    1
    39    24    39    1
@<TRIPOS>SUBSTRUCTURE
     1 ZINC000057429281        1 TEMP              0 ****  ****    0 ROOT


##########                                Name:    ZINC000742270208
##########                DOCK_Rotatable_Bonds:                   5
##########                         Heavy_Atoms:                  25
##########                    Molecular_Weight:             376.328
##########                DOCK_Rotatable_Bonds:                   5
##########                       Formal_Charge:                0.02
##########                     HBond_Acceptors:                   9
##########                        HBond_Donors:                   0
##########                         Heavy_Atoms:                  25
##########                          Grid_Score:          -28.147421
##########                     Grid_vdw_energy:          -27.174643
##########                      Grid_es_energy:           -0.972778
##########           Internal_energy_repulsive:           15.248811

@<TRIPOS>MOLECULE
ZINC000742270208
 37 38 1 0 0
SMALL
USER_CHARGES


@<TRIPOS>ATOM
      1 C1          5.8244   -0.1158   52.8436 C.3     1  ZINC000742270208   -0.1400
      2 C2          4.7701    0.9454   52.5219 C.3     1  ZINC000742270208   -0.1400
      3 C3          5.4223    2.3293   52.5240 C.3     1  ZINC000742270208   -0.1400
      4 C4          4.1792    0.6705   51.1631 C.2     1  ZINC000742270208    0.4000
      5 O5          4.8496    0.1324   50.3080 O.2     1  ZINC000742270208   -0.4300
      6 C6          2.7884    1.0552   50.8741 C.ar    1  ZINC000742270208   -0.1000
      7 C7          2.2345    0.7965   49.6163 C.ar    1  ZINC000742270208   -0.0900
      8 C8          0.9306    1.1600   49.3532 C.ar    1  ZINC000742270208   -0.0200
      9 C9          0.1707    1.7797   50.3299 C.ar    1  ZINC000742270208   -0.6800
     10 S10        -1.4944    2.2403   49.9838 S.o2    1  ZINC000742270208    2.6600
     11 O11        -1.5303    3.6607   50.0038 O.2     1  ZINC000742270208   -0.9300
     12 O12        -1.8994    1.4683   48.8616 O.2     1  ZINC000742270208   -0.9000
     13 O13        -2.3444    1.7725   51.1566 O.3     1  ZINC000742270208   -0.6400
     14 C14        -3.6532    2.1320   51.0695 C.ar    1  ZINC000742270208    0.0500
     15 C15        -4.0600    3.3855   51.5053 C.ar    1  ZINC000742270208    0.0900
     16 F16        -3.1561    4.2497   52.0165 F       1  ZINC000742270208   -0.0900
     17 C17        -5.3936    3.7499   51.4153 C.ar    1  ZINC000742270208    0.1100
     18 F18        -5.7901    4.9698   51.8393 F       1  ZINC000742270208   -0.1000
     19 C19        -6.3201    2.8651   50.8907 C.ar    1  ZINC000742270208   -0.1100
     20 C20        -5.9163    1.6142   50.4559 C.ar    1  ZINC000742270208    0.1200
     21 F21        -6.8223    0.7524   49.9443 F       1  ZINC000742270208   -0.1000
     22 C22        -4.5828    1.2480   50.5394 C.ar    1  ZINC000742270208    0.1200
     23 F23        -4.1892    0.0275   50.1145 F       1  ZINC000742270208   -0.0900
     24 C24         0.7116    2.0392   51.5771 C.ar    1  ZINC000742270208   -0.0300
     25 C25         2.0120    1.6762   51.8577 C.ar    1  ZINC000742270208   -0.0800
     26 H26         6.2518    0.0830   53.8264 H       1  ZINC000742270208    0.0700
     27 H27         5.3597   -1.1017   52.8421 H       1  ZINC000742270208    0.0600
     28 H28         6.6127   -0.0845   52.0915 H       1  ZINC000742270208    0.0600
     29 H29         3.9818    0.9141   53.2740 H       1  ZINC000742270208    0.1000
     30 H30         6.2106    2.3606   51.7718 H       1  ZINC000742270208    0.0700
     31 H31         4.6713    3.0853   52.2946 H       1  ZINC000742270208    0.0600
     32 H32         5.8498    2.5281   53.5068 H       1  ZINC000742270208    0.0700
     33 H33         2.8265    0.3136   48.8529 H       1  ZINC000742270208    0.1500
     34 H34         0.5015    0.9609   48.3824 H       1  ZINC000742270208    0.1500
     35 H35        -7.3593    3.1507   50.8208 H       1  ZINC000742270208    0.1900
     36 H36         0.1123    2.5231   52.3340 H       1  ZINC000742270208    0.1500
     37 H37         2.4327    1.8793   52.8315 H       1  ZINC000742270208    0.1500
@<TRIPOS>BOND
     1     1     2    1
     2     1    26    1
     3     1    27    1
     4     1    28    1
     5     2     3    1
     6     2     4    1
     7     2    29    1
     8     3    30    1
     9     3    31    1
    10     3    32    1
    11     4     5    2
    12     4     6    1
    13     6    25   ar
    14     6     7   ar
    15     7     8   ar
    16     7    33    1
    17     8     9   ar
    18     8    34    1
    19     9    10    1
    20     9    24   ar
    21    10    11    2
    22    10    12    2
    23    10    13    1
    24    13    14    1
    25    14    22   ar
    26    14    15   ar
    27    15    16    1
    28    15    17   ar
    29    17    18    1
    30    17    19   ar
    31    19    20   ar
    32    19    35    1
    33    20    21    1
    34    20    22   ar
    35    22    23    1
    36    24    25   ar
    37    24    36    1
    38    25    37    1
@<TRIPOS>SUBSTRUCTURE
     1 ZINC000742270208        1 TEMP              0 ****  ****    0 ROOT


##########                                Name:    ZINC000179211660
##########                DOCK_Rotatable_Bonds:                   6
##########                         Heavy_Atoms:                  23
##########                    Molecular_Weight:             385.208
##########                DOCK_Rotatable_Bonds:                   6
##########                       Formal_Charge:        -1.78814e-07
##########                     HBond_Acceptors:                   6
##########                        HBond_Donors:                   1
##########                         Heavy_Atoms:                  23
##########                          Grid_Score:          -28.139593
##########                     Grid_vdw_energy:          -26.508450
##########                      Grid_es_energy:           -1.631143
##########           Internal_energy_repulsive:           15.957916

@<TRIPOS>MOLECULE
ZINC000179211660
 38 39 1 0 0
SMALL
USER_CHARGES


@<TRIPOS>ATOM
      1 C1         -7.2940    4.8761   48.4575 C.3     1  ZINC000179211660    0.0300
      2 O2         -6.7284    4.2720   49.6226 O.3     1  ZINC000179211660   -0.2700
      3 C3         -7.5960    3.8118   50.5619 C.ar    1  ZINC000179211660    0.1500
      4 C4         -8.9541    4.0649   50.4367 C.ar    1  ZINC000179211660   -0.2200
      5 C5         -9.8341    3.5955   51.3929 C.ar    1  ZINC000179211660   -0.0700
      6 C6         -9.3622    2.8747   52.4739 C.ar    1  ZINC000179211660   -0.1700
      7 C7         -8.0087    2.6215   52.6013 C.ar    1  ZINC000179211660   -0.0700
      8 C8         -7.1254    3.0832   51.6450 C.ar    1  ZINC000179211660   -0.1500
      9 C9         -5.6506    2.8064   51.7841 C.3     1  ZINC000179211660    0.1800
     10 N10        -5.3099    1.5900   51.0422 N.am    1  ZINC000179211660   -0.6200
     11 C11        -6.3311    0.5669   50.8042 C.3     1  ZINC000179211660    0.0700
     12 C12        -4.0569    1.4122   50.5786 C.2     1  ZINC000179211660    0.7000
     13 O13        -3.7745    0.4033   49.9615 O.2     1  ZINC000179211660   -0.5300
     14 N14        -3.1171    2.3526   50.7991 N.am    1  ZINC000179211660   -0.6800
     15 C15        -1.8145    2.1678   50.3172 C.ar    1  ZINC000179211660    0.1900
     16 C16        -1.6016    1.9140   48.9699 C.ar    1  ZINC000179211660   -0.1400
     17 C17        -0.3141    1.7323   48.4964 C.ar    1  ZINC000179211660    0.1500
     18 F18        -0.1060    1.4852   47.1845 F       1  ZINC000179211660   -0.1100
     19 C19         0.7615    1.8042   49.3662 C.ar    1  ZINC000179211660   -0.1300
     20 Br20        2.5197    1.5560   48.7157 Br      1  ZINC000179211660   -0.0100
     21 C21         0.5516    2.0576   50.7102 C.ar    1  ZINC000179211660   -0.0700
     22 C22        -0.7325    2.2442   51.1874 C.ar    1  ZINC000179211660    0.0600
     23 F23        -0.9367    2.4916   52.4998 F       1  ZINC000179211660   -0.1300
     24 H24        -6.4942    5.1989   47.7910 H       1  ZINC000179211660    0.1000
     25 H25        -7.9257    4.1519   47.9431 H       1  ZINC000179211660    0.0500
     26 H26        -7.8934    5.7382   48.7499 H       1  ZINC000179211660    0.0500
     27 H27        -9.3232    4.6286   49.5927 H       1  ZINC000179211660    0.1300
     28 H28       -10.8916    3.7924   51.2958 H       1  ZINC000179211660    0.1200
     29 H29       -10.0516    2.5090   53.2205 H       1  ZINC000179211660    0.1200
     30 H30        -7.6424    2.0584   53.4470 H       1  ZINC000179211660    0.1300
     31 H31        -5.0839    3.6470   51.3838 H       1  ZINC000179211660    0.0900
     32 H32        -5.4041    2.6707   52.8372 H       1  ZINC000179211660    0.1000
     33 H33        -6.8440    0.7770   49.8656 H       1  ZINC000179211660    0.0600
     34 H34        -5.8574   -0.4131   50.7479 H       1  ZINC000179211660    0.0600
     35 H35        -7.0518    0.5758   51.6219 H       1  ZINC000179211660    0.0800
     36 H36        -3.3424    3.1575   51.2914 H       1  ZINC000179211660    0.4100
     37 H37        -2.4399    1.8580   48.2913 H       1  ZINC000179211660    0.1800
     38 H38         1.3919    2.1131   51.3863 H       1  ZINC000179211660    0.1600
@<TRIPOS>BOND
     1     1     2    1
     2     1    24    1
     3     1    25    1
     4     1    26    1
     5     2     3    1
     6     3     8   ar
     7     3     4   ar
     8     4     5   ar
     9     4    27    1
    10     5     6   ar
    11     5    28    1
    12     6     7   ar
    13     6    29    1
    14     7     8   ar
    15     7    30    1
    16     8     9    1
    17     9    10    1
    18     9    31    1
    19     9    32    1
    20    10    11    1
    21    10    12   am
    22    11    33    1
    23    11    34    1
    24    11    35    1
    25    12    13    2
    26    12    14   am
    27    14    15    1
    28    14    36    1
    29    15    22   ar
    30    15    16   ar
    31    16    17   ar
    32    16    37    1
    33    17    18    1
    34    17    19   ar
    35    19    20    1
    36    19    21   ar
    37    21    22   ar
    38    21    38    1
    39    22    23    1
@<TRIPOS>SUBSTRUCTURE
     1 ZINC000179211660        1 TEMP              0 ****  ****    0 ROOT


##########                                Name:    ZINC001016082614
##########                DOCK_Rotatable_Bonds:                   6
##########                         Heavy_Atoms:                  25
##########                    Molecular_Weight:             348.402
##########                DOCK_Rotatable_Bonds:                   6
##########                       Formal_Charge:         -0.00999998
##########                     HBond_Acceptors:                   8
##########                        HBond_Donors:                   1
##########                         Heavy_Atoms:                  25
##########                          Grid_Score:          -28.139397
##########                     Grid_vdw_energy:          -27.082876
##########                      Grid_es_energy:           -1.056521
##########           Internal_energy_repulsive:           32.508198

@<TRIPOS>MOLECULE
ZINC001016082614
 49 51 1 0 0
SMALL
USER_CHARGES


@<TRIPOS>ATOM
      1 C1         -3.1554    4.5723   52.0245 C.3     1  ZINC001016082614   -0.1700
      2 C2         -2.7981    3.0954   52.2027 C.3     1  ZINC001016082614    0.1000
      3 N3         -2.3364    2.5470   50.9251 N.am    1  ZINC001016082614   -0.6100
      4 C4         -3.1686    1.8005   50.1721 C.2     1  ZINC001016082614    0.6100
      5 O5         -2.7852    1.3451   49.1109 O.2     1  ZINC001016082614   -0.5100
      6 C6         -4.5367    1.5371   50.6320 C.2     1  ZINC001016082614   -0.1100
      7 C7         -5.1463    0.3207   50.7177 C.2     1  ZINC001016082614    0.0600
      8 N8         -6.3835    0.5240   51.1820 N.2     1  ZINC001016082614   -0.4900
      9 C9         -6.5573    1.8027   51.3830 C.2     1  ZINC001016082614    0.2000
     10 O10        -5.4360    2.4541   51.0589 O.3     1  ZINC001016082614   -0.1900
     11 C11        -0.9703    2.8099   50.4658 C.3     1  ZINC001016082614    0.1600
     12 H12        -0.4502    3.3770   51.2378 H       1  ZINC001016082614    0.0800
     13 C13        -0.2559    1.4746   50.2812 C.3     1  ZINC001016082614   -0.1300
     14 C14         1.2301    1.6751   50.4486 C.3     1  ZINC001016082614   -0.1300
     15 C15         1.8824    1.9612   49.0838 C.3     1  ZINC001016082614    0.1000
     16 N16         1.0586    2.8592   48.2508 N.am    1  ZINC001016082614   -0.6000
     17 C17         0.9258    2.5823   46.9386 C.2     1  ZINC001016082614    0.5000
     18 O18         1.4774    1.6117   46.4649 O.2     1  ZINC001016082614   -0.5200
     19 C19         0.0919    3.4788   46.0599 C.3     1  ZINC001016082614    0.1100
     20 H20        -0.7391    3.8962   46.6285 H       1  ZINC001016082614    0.1100
     21 C21        -0.4366    2.6909   44.8409 C.3     1  ZINC001016082614   -0.1200
     22 C22         0.6464    2.9899   43.7786 C.3     1  ZINC001016082614   -0.1600
     23 C23         1.2498    4.3039   44.2235 C.2     1  ZINC001016082614    0.5300
     24 O24         1.9322    5.0259   43.5278 O.2     1  ZINC001016082614   -0.5300
     25 N25         0.9186    4.5563   45.5037 N.am    1  ZINC001016082614   -0.7100
     26 C26         0.3880    4.0235   48.7848 C.3     1  ZINC001016082614    0.1300
     27 C27        -1.0372    3.6318   49.2477 C.3     1  ZINC001016082614   -0.1600
     28 H28        -3.4989    4.9804   52.9751 H       1  ZINC001016082614    0.0700
     29 H29        -2.2750    5.1214   51.6903 H       1  ZINC001016082614    0.0500
     30 H30        -3.9468    4.6675   51.2810 H       1  ZINC001016082614    0.0600
     31 H31        -2.0066    3.0002   52.9462 H       1  ZINC001016082614    0.0900
     32 H32        -3.6784    2.5464   52.5369 H       1  ZINC001016082614    0.0900
     33 H33        -4.7099   -0.6325   50.4579 H       1  ZINC001016082614    0.2000
     34 H34        -7.4615    2.2606   51.7561 H       1  ZINC001016082614    0.2600
     35 H35        -0.6133    0.7647   51.0271 H       1  ZINC001016082614    0.0700
     36 H36        -0.4604    1.0877   49.2829 H       1  ZINC001016082614    0.0800
     37 H37         1.4081    2.5170   51.1178 H       1  ZINC001016082614    0.0700
     38 H38         1.6702    0.7751   50.8780 H       1  ZINC001016082614    0.0800
     39 H39         2.8559    2.4235   49.2467 H       1  ZINC001016082614    0.0700
     40 H40         2.0240    1.0187   48.5548 H       1  ZINC001016082614    0.0800
     41 H41        -0.4863    1.6239   45.0578 H       1  ZINC001016082614    0.1000
     42 H42        -1.4087    3.0686   44.5239 H       1  ZINC001016082614    0.1000
     43 H43         1.4028    2.2051   43.7736 H       1  ZINC001016082614    0.1100
     44 H44         0.1949    3.0922   42.7918 H       1  ZINC001016082614    0.1100
     45 H45         1.1916    5.3476   45.9938 H       1  ZINC001016082614    0.4200
     46 H46         0.9533    4.4110   49.6324 H       1  ZINC001016082614    0.0800
     47 H47         0.3215    4.7899   48.0127 H       1  ZINC001016082614    0.0900
     48 H48        -1.5318    3.0694   48.4559 H       1  ZINC001016082614    0.0900
     49 H49        -1.6097    4.5354   49.4568 H       1  ZINC001016082614    0.0700
@<TRIPOS>BOND
     1     1     2    1
     2     1    28    1
     3     1    29    1
     4     1    30    1
     5     2     3    1
     6     2    31    1
     7     2    32    1
     8     3     4   am
     9     3    11    1
    10     4     5    2
    11     4     6    1
    12     6    10    1
    13     6     7    2
    14     7     8    1
    15     7    33    1
    16     8     9    2
    17     9    10    1
    18     9    34    1
    19    11    12    1
    20    11    27    1
    21    11    13    1
    22    13    14    1
    23    13    35    1
    24    13    36    1
    25    14    15    1
    26    14    37    1
    27    14    38    1
    28    15    16    1
    29    15    39    1
    30    15    40    1
    31    16    17   am
    32    16    26    1
    33    17    18    2
    34    17    19    1
    35    19    20    1
    36    19    25    1
    37    19    21    1
    38    21    22    1
    39    21    41    1
    40    21    42    1
    41    22    23    1
    42    22    43    1
    43    22    44    1
    44    23    24    2
    45    23    25   am
    46    25    45    1
    47    26    27    1
    48    26    46    1
    49    26    47    1
    50    27    48    1
    51    27    49    1
@<TRIPOS>SUBSTRUCTURE
     1 ZINC001016082614        1 TEMP              0 ****  ****    0 ROOT


##########                                Name:    ZINC000561219098
##########                DOCK_Rotatable_Bonds:                   4
##########                         Heavy_Atoms:                  28
##########                    Molecular_Weight:             423.273
##########                DOCK_Rotatable_Bonds:                   4
##########                       Formal_Charge:          0.00999953
##########                     HBond_Acceptors:                   9
##########                        HBond_Donors:                   1
##########                         Heavy_Atoms:                  28
##########                          Grid_Score:          -28.115932
##########                     Grid_vdw_energy:          -28.161116
##########                      Grid_es_energy:            0.045184
##########           Internal_energy_repulsive:           10.854346

@<TRIPOS>MOLECULE
ZINC000561219098
 45 48 1 0 0
SMALL
USER_CHARGES


@<TRIPOS>ATOM
      1 C1        -10.6614   -1.0170   58.5467 C.3     1  ZINC000561219098    0.0700
      2 N2        -10.9045   -0.7128   57.1344 N.pl3   1  ZINC000561219098   -0.4500
      3 C3        -12.0251   -1.0488   56.4329 C.2     1  ZINC000561219098   -0.0100
      4 C4        -11.8879   -0.6040   55.1696 C.2     1  ZINC000561219098   -0.1700
      5 C5        -10.6264    0.0368   55.0817 C.2     1  ZINC000561219098   -0.1100
      6 C6        -10.0462    0.6812   53.8758 C.2     1  ZINC000561219098    0.1600
      7 N7        -10.6105    0.7388   52.6873 N.2     1  ZINC000561219098   -0.2700
      8 N8         -9.7555    1.4262   51.8172 N.pl3   1  ZINC000561219098   -0.4700
      9 C9         -8.6411    1.7887   52.5215 C.2     1  ZINC000561219098    0.0300
     10 C10        -7.4815    2.5301   51.9996 C.2     1  ZINC000561219098    0.5900
     11 O11        -7.3514    3.7125   52.2528 O.2     1  ZINC000561219098   -0.5000
     12 N12        -6.5639    1.8985   51.2410 N.am    1  ZINC000561219098   -0.6100
     13 C13        -6.6998    0.4686   50.9212 C.3     1  ZINC000561219098    0.0500
     14 C14        -5.3756   -0.2290   51.2525 C.3     1  ZINC000561219098    0.0500
     15 O15        -4.3038    0.4661   50.6105 O.3     1  ZINC000561219098   -0.3700
     16 C16        -4.1359    1.8162   51.0494 C.3     1  ZINC000561219098    0.1200
     17 H17        -3.9759    1.8314   52.1275 H       1  ZINC000561219098    0.0900
     18 C18        -2.9459    2.4268   50.3552 C.ar    1  ZINC000561219098   -0.0500
     19 C19        -2.4372    1.8402   49.2120 C.ar    1  ZINC000561219098   -0.1000
     20 C20        -1.3443    2.4011   48.5737 C.ar    1  ZINC000561219098    0.1200
     21 F21        -0.8470    1.8282   47.4558 F       1  ZINC000561219098   -0.1200
     22 C22        -0.7609    3.5505   49.0817 C.ar    1  ZINC000561219098   -0.0600
     23 Cl23        0.6094    4.2552   48.2821 Cl      1  ZINC000561219098   -0.0300
     24 C24        -1.2710    4.1364   50.2260 C.ar    1  ZINC000561219098   -0.0700
     25 C25        -2.3664    3.5778   50.8596 C.ar    1  ZINC000561219098   -0.0300
     26 Cl26       -3.0068    4.3138   52.2955 Cl      1  ZINC000561219098   -0.0400
     27 C27        -5.3996    2.6199   50.7029 C.3     1  ZINC000561219098    0.0900
     28 C28        -8.8078    1.3361   53.8125 C.2     1  ZINC000561219098   -0.1700
     29 C29       -10.0505   -0.0435   56.3107 C.2     1  ZINC000561219098    0.0300
     30 H30       -11.0405   -0.2027   59.1642 H       1  ZINC000561219098    0.0800
     31 H31       -11.1721   -1.9426   58.8121 H       1  ZINC000561219098    0.0900
     32 H32        -9.5905   -1.1320   58.7145 H       1  ZINC000561219098    0.0900
     33 H33       -12.8786   -1.5819   56.8250 H       1  ZINC000561219098    0.1700
     34 H34       -12.6062   -0.7150   54.3708 H       1  ZINC000561219098    0.1400
     35 H35        -9.9237    1.6117   50.8801 H       1  ZINC000561219098    0.4400
     36 H36        -7.5028    0.0340   51.5165 H       1  ZINC000561219098    0.1000
     37 H37        -6.9223    0.3492   49.8608 H       1  ZINC000561219098    0.0900
     38 H38        -5.2201   -0.2212   52.3314 H       1  ZINC000561219098    0.0700
     39 H39        -5.4072   -1.2585   50.8959 H       1  ZINC000561219098    0.1200
     40 H40        -2.8923    0.9440   48.8167 H       1  ZINC000561219098    0.1600
     41 H41        -0.8165    5.0322   50.6227 H       1  ZINC000561219098    0.1600
     42 H42        -5.4883    2.7160   49.6208 H       1  ZINC000561219098    0.0900
     43 H43        -5.3411    3.6095   51.1563 H       1  ZINC000561219098    0.1100
     44 H44        -8.1082    1.4577   54.6262 H       1  ZINC000561219098    0.1600
     45 H45        -9.0819    0.3483   56.5841 H       1  ZINC000561219098    0.1700
@<TRIPOS>BOND
     1     1     2    1
     2     1    30    1
     3     1    31    1
     4     1    32    1
     5     2    29    1
     6     2     3    1
     7     3     4    2
     8     3    33    1
     9     4     5    1
    10     4    34    1
    11     5     6    1
    12     5    29    2
    13     6    28    1
    14     6     7    2
    15     7     8    1
    16     8     9    1
    17     8    35    1
    18     9    10    1
    19     9    28    2
    20    10    11    2
    21    10    12   am
    22    12    27    1
    23    12    13    1
    24    13    14    1
    25    13    36    1
    26    13    37    1
    27    14    15    1
    28    14    38    1
    29    14    39    1
    30    15    16    1
    31    16    17    1
    32    16    18    1
    33    16    27    1
    34    18    25   ar
    35    18    19   ar
    36    19    20   ar
    37    19    40    1
    38    20    21    1
    39    20    22   ar
    40    22    23    1
    41    22    24   ar
    42    24    25   ar
    43    24    41    1
    44    25    26    1
    45    27    42    1
    46    27    43    1
    47    28    44    1
    48    29    45    1
@<TRIPOS>SUBSTRUCTURE
     1 ZINC000561219098        1 TEMP              0 ****  ****    0 ROOT


##########                                Name:    ZINC000966038509
##########                DOCK_Rotatable_Bonds:                   5
##########                         Heavy_Atoms:                  25
##########                    Molecular_Weight:             346.445
##########                DOCK_Rotatable_Bonds:                   5
##########                       Formal_Charge:           0.0299998
##########                     HBond_Acceptors:                   5
##########                        HBond_Donors:                   1
##########                         Heavy_Atoms:                  25
##########                          Grid_Score:          -28.114040
##########                     Grid_vdw_energy:          -26.985521
##########                      Grid_es_energy:           -1.128519
##########           Internal_energy_repulsive:           19.062174

@<TRIPOS>MOLECULE
ZINC000966038509
 52 54 1 0 0
SMALL
USER_CHARGES


@<TRIPOS>ATOM
      1 C1         -3.0553    4.2562   52.6023 C.3     1  ZINC000966038509   -0.1200
      2 C2         -3.5951    3.0477   51.8818 C.ar    1  ZINC000966038509   -0.0100
      3 C3         -2.7467    2.2429   51.1522 C.ar    1  ZINC000966038509   -0.1600
      4 C4         -3.2421    1.1310   50.4882 C.ar    1  ZINC000966038509    0.1300
      5 F5         -2.4063    0.3457   49.7741 F       1  ZINC000966038509   -0.1300
      6 C6         -4.5920    0.8217   50.5550 C.ar    1  ZINC000966038509   -0.1600
      7 C7         -5.4492    1.6198   51.2818 C.ar    1  ZINC000966038509   -0.0100
      8 C8         -6.9164    1.2828   51.3531 C.3     1  ZINC000966038509   -0.1200
      9 C9         -4.9547    2.7379   51.9567 C.ar    1  ZINC000966038509   -0.1500
     10 C10        -5.8687    3.5969   52.7372 C.2     1  ZINC000966038509    0.5700
     11 O11        -6.2397    4.6613   52.2819 O.2     1  ZINC000966038509   -0.5200
     12 N12        -6.2912    3.2006   53.9542 N.am    1  ZINC000966038509   -0.7100
     13 C13        -7.1989    4.0516   54.7274 C.3     1  ZINC000966038509    0.1300
     14 H14        -7.4706    4.9437   54.1630 H       1  ZINC000966038509    0.1200
     15 C15        -8.4603    3.2654   55.1641 C.3     1  ZINC000966038509    0.0900
     16 N16        -8.0388    2.5082   56.3568 N.am    1  ZINC000966038509   -0.6200
     17 C17        -8.6083    1.3732   56.8084 C.2     1  ZINC000966038509    0.5400
     18 O18        -9.5526    0.8923   56.2186 O.2     1  ZINC000966038509   -0.5300
     19 C19        -8.0715    0.7017   58.0460 C.3     1  ZINC000966038509   -0.1100
     20 C20        -8.6346    1.3811   59.3190 C.3     1  ZINC000966038509   -0.1100
     21 C21        -8.5082    0.2658   60.3863 C.3     1  ZINC000966038509   -0.1200
     22 C22        -8.8589   -1.0288   59.6239 C.3     1  ZINC000966038509   -0.1200
     23 C23        -8.5812   -0.7516   58.1360 C.3     1  ZINC000966038509   -0.1100
     24 C24        -6.8939    3.1959   56.9716 C.3     1  ZINC000966038509    0.1000
     25 C25        -6.5759    4.4286   56.0975 C.3     1  ZINC000966038509   -0.1100
     26 H26        -7.0496    5.3223   56.5040 H       1  ZINC000966038509    0.1000
     27 C27        -5.0641    4.6286   55.9732 C.3     1  ZINC000966038509   -0.1400
     28 H28        -2.7482    3.9720   53.6088 H       1  ZINC000966038509    0.0800
     29 H29        -2.1971    4.6504   52.0582 H       1  ZINC000966038509    0.0800
     30 H30        -3.8304    5.0204   52.6611 H       1  ZINC000966038509    0.0700
     31 H31        -1.6943    2.4790   51.0971 H       1  ZINC000966038509    0.1400
     32 H32        -4.9727   -0.0457   50.0364 H       1  ZINC000966038509    0.1400
     33 H33        -7.0976    0.6270   52.2045 H       1  ZINC000966038509    0.0800
     34 H34        -7.4944    2.1995   51.4709 H       1  ZINC000966038509    0.0700
     35 H35        -7.2183    0.7785   50.4351 H       1  ZINC000966038509    0.0800
     36 H36        -5.9942    2.3520   54.3180 H       1  ZINC000966038509    0.4000
     37 H37        -9.2673    3.9530   55.4168 H       1  ZINC000966038509    0.0800
     38 H38        -8.7749    2.5838   54.3738 H       1  ZINC000966038509    0.0800
     39 H39        -6.9817    0.7246   58.0493 H       1  ZINC000966038509    0.0900
     40 H40        -8.0327    2.2477   59.5928 H       1  ZINC000966038509    0.0700
     41 H41        -9.6777    1.6634   59.1769 H       1  ZINC000966038509    0.0700
     42 H42        -7.4889    0.2184   60.7697 H       1  ZINC000966038509    0.0700
     43 H43        -9.2151    0.4334   61.1988 H       1  ZINC000966038509    0.0700
     44 H44        -8.2328   -1.8495   59.9740 H       1  ZINC000966038509    0.0700
     45 H45        -9.9112   -1.2735   59.7681 H       1  ZINC000966038509    0.0700
     46 H46        -9.4988   -0.8618   57.5581 H       1  ZINC000966038509    0.0800
     47 H47        -7.8204   -1.4378   57.7640 H       1  ZINC000966038509    0.0700
     48 H48        -7.1516    3.5144   57.9816 H       1  ZINC000966038509    0.0800
     49 H49        -6.0323    2.5291   56.9994 H       1  ZINC000966038509    0.0700
     50 H50        -4.6143    3.7364   55.5376 H       1  ZINC000966038509    0.0600
     51 H51        -4.8627    5.4869   55.3322 H       1  ZINC000966038509    0.0700
     52 H52        -4.6385    4.8049   56.9610 H       1  ZINC000966038509    0.0700
@<TRIPOS>BOND
     1     1     2    1
     2     1    28    1
     3     1    29    1
     4     1    30    1
     5     2     9   ar
     6     2     3   ar
     7     3     4   ar
     8     3    31    1
     9     4     5    1
    10     4     6   ar
    11     6     7   ar
    12     6    32    1
    13     7     8    1
    14     7     9   ar
    15     8    33    1
    16     8    34    1
    17     8    35    1
    18     9    10    1
    19    10    11    2
    20    10    12   am
    21    12    13    1
    22    12    36    1
    23    13    14    1
    24    13    25    1
    25    13    15    1
    26    15    16    1
    27    15    37    1
    28    15    38    1
    29    16    17   am
    30    16    24    1
    31    17    18    2
    32    17    19    1
    33    19    23    1
    34    19    20    1
    35    19    39    1
    36    20    21    1
    37    20    40    1
    38    20    41    1
    39    21    22    1
    40    21    42    1
    41    21    43    1
    42    22    23    1
    43    22    44    1
    44    22    45    1
    45    23    46    1
    46    23    47    1
    47    24    25    1
    48    24    48    1
    49    24    49    1
    50    25    26    1
    51    25    27    1
    52    27    50    1
    53    27    51    1
    54    27    52    1
@<TRIPOS>SUBSTRUCTURE
     1 ZINC000966038509        1 TEMP              0 ****  ****    0 ROOT


##########                                Name:    ZINC000338927927
##########                DOCK_Rotatable_Bonds:                   9
##########                         Heavy_Atoms:                  23
##########                    Molecular_Weight:             336.286
##########                DOCK_Rotatable_Bonds:                   9
##########                       Formal_Charge:         -0.00999999
##########                     HBond_Acceptors:                   9
##########                        HBond_Donors:                   2
##########                         Heavy_Atoms:                  23
##########                          Grid_Score:          -28.105492
##########                     Grid_vdw_energy:          -27.338982
##########                      Grid_es_energy:           -0.766509
##########           Internal_energy_repulsive:           11.302873

@<TRIPOS>MOLECULE
ZINC000338927927
 39 39 1 0 0
SMALL
USER_CHARGES


@<TRIPOS>ATOM
      1 C1          0.1754    0.7902   44.9061 C.3     1  <0>        -0.1600
      2 C2         -0.0550    1.6988   46.1153 C.3     1  <0>        -0.1100
      3 C3         -0.1982    0.8437   47.3759 C.3     1  <0>        -0.1000
      4 H4         -0.5501   -0.1510   47.1021 H       1  <0>         0.1400
      5 C5         -1.1899    1.4879   48.3100 C.2     1  <0>         0.5200
      6 O6         -1.6976    2.5497   48.0171 O.2     1  <0>        -0.4700
      7 N7         -1.5127    0.8840   49.4709 N.am    1  <0>        -0.6700
      8 C8         -2.4334    1.4821   50.3382 C.ar    1  <0>         0.2200
      9 C9         -2.0975    2.6498   51.0104 C.ar    1  <0>        -0.2300
     10 C10        -3.0079    3.2420   51.8686 C.ar    1  <0>         0.1700
     11 F11        -2.6789    4.3781   52.5215 F       1  <0>        -0.1300
     12 C12        -4.2544    2.6724   52.0581 C.ar    1  <0>        -0.2500
     13 C13        -4.5946    1.5041   51.3875 C.ar    1  <0>         0.2600
     14 N14        -5.8530    0.9292   51.5795 N.pl3   1  <0>        -0.7400
     15 C15        -7.0411    1.5542   50.9929 C.3     1  <0>         0.0800
     16 C16        -8.2010    1.4779   51.9875 C.3     1  <0>         0.4500
     17 F17        -8.8674    0.2574   51.8342 F       1  <0>        -0.1800
     18 F18        -7.7045    1.5776   53.2917 F       1  <0>        -0.1700
     19 F19        -9.0921    2.5292   51.7462 F       1  <0>        -0.1800
     20 C20        -3.6851    0.9118   50.5227 C.ar    1  <0>        -0.2000
     21 C21         1.1390    0.7323   48.0619 C.2     1  <0>         0.4600
     22 O22         2.0095    0.0464   47.5808 O.2     1  <0>        -0.4600
     23 O23         1.3628    1.3950   49.2075 O.3     1  <0>        -0.3500
     24 C24         1.7774    2.7821   49.0964 C.3     1  <0>         0.0300
     25 H25        -0.6723    0.1146   44.7924 H       1  <0>         0.0600
     26 H26         0.2775    1.3995   44.0081 H       1  <0>         0.0600
     27 H27         1.0854    0.2092   45.0563 H       1  <0>         0.0800
     28 H28         0.7928    2.3744   46.2289 H       1  <0>         0.0800
     29 H29        -0.9650    2.2797   45.9650 H       1  <0>         0.0800
     30 H30        -1.1067    0.0348   49.7051 H       1  <0>         0.4200
     31 H31        -1.1250    3.0960   50.8639 H       1  <0>         0.1400
     32 H32        -4.9633    3.1361   52.7282 H       1  <0>         0.1400
     33 H33        -5.9402    0.1162   52.1012 H       1  <0>         0.4100
     34 H34        -6.8268    2.5981   50.7638 H       1  <0>         0.1100
     35 H35        -7.3127    1.0296   50.0769 H       1  <0>         0.1100
     36 H36        -3.9478    0.0037   50.0006 H       1  <0>         0.1500
     37 H37         1.9240    3.1985   50.0930 H       1  <0>         0.1000
     38 H38         2.7118    2.8384   48.5381 H       1  <0>         0.0600
     39 H39         1.0076    3.3508   48.5747 H       1  <0>         0.0600
@<TRIPOS>BOND
     1     1     2    1
     2     1    25    1
     3     1    26    1
     4     1    27    1
     5     2     3    1
     6     2    28    1
     7     2    29    1
     8     3     4    1
     9     3     5    1
    10     3    21    1
    11     5     6    2
    12     5     7   am
    13     7     8    1
    14     7    30    1
    15     8    20   ar
    16     8     9   ar
    17     9    10   ar
    18     9    31    1
    19    10    11    1
    20    10    12   ar
    21    12    13   ar
    22    12    32    1
    23    13    14    1
    24    13    20   ar
    25    14    15    1
    26    14    33    1
    27    15    16    1
    28    15    34    1
    29    15    35    1
    30    16    17    1
    31    16    18    1
    32    16    19    1
    33    20    36    1
    34    21    22    2
    35    21    23    1
    36    23    24    1
    37    24    37    1
    38    24    38    1
    39    24    39    1
@<TRIPOS>SUBSTRUCTURE
     1 <0>         1 TEMP              0 ****  ****    0 ROOT


##########                                Name:    ZINC000840464592
##########                DOCK_Rotatable_Bonds:                  10
##########                         Heavy_Atoms:                  26
##########                    Molecular_Weight:             360.497
##########                DOCK_Rotatable_Bonds:                  10
##########                       Formal_Charge:          -0.0399996
##########                     HBond_Acceptors:                   5
##########                        HBond_Donors:                   1
##########                         Heavy_Atoms:                  26
##########                          Grid_Score:          -28.086863
##########                     Grid_vdw_energy:          -26.510750
##########                      Grid_es_energy:           -1.576113
##########           Internal_energy_repulsive:           82.032394

@<TRIPOS>MOLECULE
ZINC000840464592
 58 59 1 0 0
SMALL
USER_CHARGES


@<TRIPOS>ATOM
      1 C1         -6.4733    0.8336   50.5063 C.3     1  ZINC000840464592   -0.1500
      2 C2         -6.3789    2.3587   50.5853 C.3     1  ZINC000840464592   -0.1300
      3 C3         -5.8851    2.7678   51.9743 C.3     1  ZINC000840464592   -0.1200
      4 C4         -7.0008    2.5467   52.9978 C.3     1  ZINC000840464592   -0.1200
      5 C5         -6.5991    3.1747   54.3338 C.3     1  ZINC000840464592   -0.1200
      6 C6         -7.8101    3.2034   55.2685 C.3     1  ZINC000840464592    0.0600
      7 O7         -8.2321    1.8660   55.5426 O.3     1  ZINC000840464592   -0.3600
      8 C8         -9.6502    1.6901   55.5315 C.3     1  ZINC000840464592    0.0800
      9 H9        -10.1304    2.5846   55.9284 H       1  ZINC000840464592    0.0800
     10 C10       -10.1233    1.4514   54.0961 C.3     1  ZINC000840464592   -0.1800
     11 C11       -10.0159    0.5031   56.3849 C.2     1  ZINC000840464592    0.5200
     12 O12       -10.4570   -0.5020   55.8688 O.2     1  ZINC000840464592   -0.5000
     13 N13        -9.8529    0.5583   57.7215 N.am    1  ZINC000840464592   -0.6000
     14 C14        -9.3214    1.7707   58.3388 C.3     1  ZINC000840464592    0.0900
     15 C15        -7.9894    1.5074   59.0321 C.3     1  ZINC000840464592   -0.1600
     16 C16        -8.1770    0.5034   60.1717 C.3     1  ZINC000840464592    0.0800
     17 N17        -8.0162   -0.8560   59.6442 N.am    1  ZINC000840464592   -0.7200
     18 C18        -8.9543   -1.3894   58.8457 C.2     1  ZINC000840464592    0.5100
     19 O19        -8.7971   -2.4931   58.3680 O.2     1  ZINC000840464592   -0.5200
     20 C20       -10.2160   -0.5972   58.5488 C.3     1  ZINC000840464592    0.1400
     21 H21       -10.9244   -1.2263   58.0099 H       1  ZINC000840464592    0.1300
     22 C22       -10.8450   -0.1234   59.8605 C.3     1  ZINC000840464592   -0.1000
     23 C23       -12.3136   -0.4612   59.8642 C.ar    1  ZINC000840464592   -0.0900
     24 C24       -13.2111    0.3500   59.1953 C.ar    1  ZINC000840464592   -0.1100
     25 C25       -14.5583    0.0401   59.1986 C.ar    1  ZINC000840464592   -0.1200
     26 C26       -15.0078   -1.0811   59.8706 C.ar    1  ZINC000840464592   -0.1200
     27 C27       -14.1103   -1.8928   60.5387 C.ar    1  ZINC000840464592   -0.1200
     28 C28       -12.7626   -1.5852   60.5318 C.ar    1  ZINC000840464592   -0.1100
     29 H29        -7.1723    0.4733   51.2611 H       1  ZINC000840464592    0.0500
     30 H30        -6.8251    0.5421   49.5167 H       1  ZINC000840464592    0.0500
     31 H31        -5.4898    0.3990   50.6849 H       1  ZINC000840464592    0.0500
     32 H32        -5.6799    2.7189   49.8304 H       1  ZINC000840464592    0.0600
     33 H33        -7.3624    2.7933   50.4067 H       1  ZINC000840464592    0.0600
     34 H34        -5.0191    2.1638   52.2448 H       1  ZINC000840464592    0.0600
     35 H35        -5.6047    3.8211   51.9646 H       1  ZINC000840464592    0.0600
     36 H36        -7.9196    3.0111   52.6398 H       1  ZINC000840464592    0.0600
     37 H37        -7.1630    1.4774   53.1331 H       1  ZINC000840464592    0.0600
     38 H38        -5.8034    2.5842   54.7882 H       1  ZINC000840464592    0.0700
     39 H39        -6.2459    4.1920   54.1656 H       1  ZINC000840464592    0.0700
     40 H40        -7.5374    3.6967   56.2014 H       1  ZINC000840464592    0.0500
     41 H41        -8.6237    3.7507   54.7923 H       1  ZINC000840464592    0.0500
     42 H42       -11.1939    1.2466   54.0958 H       1  ZINC000840464592    0.0800
     43 H43        -9.9227    2.3384   53.4953 H       1  ZINC000840464592    0.0700
     44 H44        -9.5902    0.5991   53.6750 H       1  ZINC000840464592    0.0800
     45 H45        -9.1784    2.5291   57.5690 H       1  ZINC000840464592    0.1000
     46 H46       -10.0377    2.1404   59.0725 H       1  ZINC000840464592    0.0800
     47 H47        -7.2794    1.1050   58.3094 H       1  ZINC000840464592    0.0800
     48 H48        -7.6007    2.4426   59.4349 H       1  ZINC000840464592    0.1000
     49 H49        -7.4300    0.6853   60.9444 H       1  ZINC000840464592    0.0900
     50 H50        -9.1754    0.6146   60.5948 H       1  ZINC000840464592    0.1000
     51 H51        -7.2276   -1.3722   59.8734 H       1  ZINC000840464592    0.4000
     52 H52       -10.3558   -0.6201   60.6984 H       1  ZINC000840464592    0.0900
     53 H53       -10.7200    0.9554   59.9545 H       1  ZINC000840464592    0.1000
     54 H54       -12.8599    1.2261   58.6703 H       1  ZINC000840464592    0.1200
     55 H55       -15.2595    0.6743   58.6766 H       1  ZINC000840464592    0.1200
     56 H56       -16.0605   -1.3229   59.8738 H       1  ZINC000840464592    0.1200
     57 H57       -14.4617   -2.7686   61.0640 H       1  ZINC000840464592    0.1200
     58 H58       -12.0614   -2.2194   61.0538 H       1  ZINC000840464592    0.1200
@<TRIPOS>BOND
     1     1     2    1
     2     1    29    1
     3     1    30    1
     4     1    31    1
     5     2     3    1
     6     2    32    1
     7     2    33    1
     8     3     4    1
     9     3    34    1
    10     3    35    1
    11     4     5    1
    12     4    36    1
    13     4    37    1
    14     5     6    1
    15     5    38    1
    16     5    39    1
    17     6     7    1
    18     6    40    1
    19     6    41    1
    20     7     8    1
    21     8     9    1
    22     8    10    1
    23     8    11    1
    24    10    42    1
    25    10    43    1
    26    10    44    1
    27    11    12    2
    28    11    13   am
    29    13    20    1
    30    13    14    1
    31    14    15    1
    32    14    45    1
    33    14    46    1
    34    15    16    1
    35    15    47    1
    36    15    48    1
    37    16    17    1
    38    16    49    1
    39    16    50    1
    40    17    18   am
    41    17    51    1
    42    18    19    2
    43    18    20    1
    44    20    21    1
    45    20    22    1
    46    22    23    1
    47    22    52    1
    48    22    53    1
    49    23    28   ar
    50    23    24   ar
    51    24    25   ar
    52    24    54    1
    53    25    26   ar
    54    25    55    1
    55    26    27   ar
    56    26    56    1
    57    27    28   ar
    58    27    57    1
    59    28    58    1
@<TRIPOS>SUBSTRUCTURE
     1 ZINC000840464592        1 TEMP              0 ****  ****    0 ROOT


##########                                Name:    ZINC000441887161
##########                DOCK_Rotatable_Bonds:                   6
##########                         Heavy_Atoms:                  27
##########                    Molecular_Weight:             383.514
##########                DOCK_Rotatable_Bonds:                   6
##########                       Formal_Charge:          -0.0300002
##########                     HBond_Acceptors:                   6
##########                        HBond_Donors:                   1
##########                         Heavy_Atoms:                  27
##########                          Grid_Score:          -28.025908
##########                     Grid_vdw_energy:          -29.742558
##########                      Grid_es_energy:            1.716650
##########           Internal_energy_repulsive:           20.071154

@<TRIPOS>MOLECULE
ZINC000441887161
 52 54 1 0 0
SMALL
USER_CHARGES


@<TRIPOS>ATOM
      1 C1          4.7931    3.6242   47.5579 C.3     1  ZINC000441887161   -0.1200
      2 C2          3.4210    3.3046   48.0930 C.ar    1  ZINC000441887161   -0.0700
      3 C3          3.2615    2.3031   49.0320 C.ar    1  ZINC000441887161   -0.1200
      4 C4          2.0027    2.0099   49.5229 C.ar    1  ZINC000441887161   -0.0900
      5 C5          0.9039    2.7186   49.0750 C.ar    1  ZINC000441887161   -0.1100
      6 C6         -0.4682    2.3988   49.6098 C.3     1  ZINC000441887161    0.1900
      7 H7         -1.1507    3.2144   49.3706 H       1  ZINC000441887161    0.1000
      8 C8         -0.9759    1.1049   48.9703 C.3     1  ZINC000441887161    0.1000
      9 N9         -0.5978    1.0784   47.5551 N.pl3   1  ZINC000441887161   -0.4600
     10 C10         0.5343    0.5188   47.0272 C.2     1  ZINC000441887161   -0.0500
     11 C11         0.4834    0.7183   45.6963 C.2     1  ZINC000441887161   -0.0200
     12 N12        -0.6489    1.3817   45.4192 N.2     1  ZINC000441887161   -0.4900
     13 C13        -1.3041    1.5964   46.5272 C.2     1  ZINC000441887161    0.1800
     14 N14        -0.3988    2.2306   51.0634 N.am    1  ZINC000441887161   -1.1100
     15 S15        -1.2835    3.2192   52.0546 S.o2    1  ZINC000441887161    2.6900
     16 O16        -1.1230    2.7134   53.3727 O.2     1  ZINC000441887161   -0.9600
     17 O17        -0.9551    4.5523   51.6882 O.2     1  ZINC000441887161   -0.9500
     18 C18        -2.9803    2.9923   51.6377 C.ar    1  ZINC000441887161   -0.6800
     19 C19        -3.8437    4.0715   51.6434 C.ar    1  ZINC000441887161   -0.0300
     20 C20        -5.1751    3.8934   51.3164 C.ar    1  ZINC000441887161   -0.1300
     21 C21        -5.6428    2.6362   50.9832 C.ar    1  ZINC000441887161   -0.0200
     22 C22        -7.0941    2.4419   50.6273 C.3     1  ZINC000441887161   -0.1300
     23 C23        -4.7788    1.5568   50.9763 C.ar    1  ZINC000441887161   -0.1000
     24 C24        -5.2885    0.1860   50.6126 C.3     1  ZINC000441887161   -0.1200
     25 C25        -3.4470    1.7355   51.2994 C.ar    1  ZINC000441887161   -0.0100
     26 C26         1.0637    3.7215   48.1368 C.ar    1  ZINC000441887161   -0.0700
     27 C27        -0.1342    4.4945   47.6487 C.3     1  ZINC000441887161   -0.1300
     28 C28         2.3226    4.0171   47.6488 C.ar    1  ZINC000441887161   -0.1200
     29 H29         5.2602    4.3831   48.1855 H       1  ZINC000441887161    0.0700
     30 H30         5.4044    2.7218   47.5631 H       1  ZINC000441887161    0.0700
     31 H31         4.7071    3.9989   46.5379 H       1  ZINC000441887161    0.0700
     32 H32         4.1201    1.7492   49.3820 H       1  ZINC000441887161    0.1200
     33 H33         1.8780    1.2267   50.2561 H       1  ZINC000441887161    0.1200
     34 H34        -0.5334    0.2494   49.4806 H       1  ZINC000441887161    0.1100
     35 H35        -2.0614    1.0581   49.0572 H       1  ZINC000441887161    0.1000
     36 H36         1.3180    0.0145   47.5730 H       1  ZINC000441887161    0.1700
     37 H37         1.2245    0.4000   44.9781 H       1  ZINC000441887161    0.1600
     38 H38        -2.2510    2.1092   46.6093 H       1  ZINC000441887161    0.2000
     39 H39         0.1654    1.5401   51.4453 H       1  ZINC000441887161    0.4200
     40 H40        -3.4783    5.0539   51.9036 H       1  ZINC000441887161    0.1300
     41 H41        -5.8499    4.7367   51.3215 H       1  ZINC000441887161    0.1300
     42 H42        -7.2259    2.5756   49.5536 H       1  ZINC000441887161    0.0800
     43 H43        -7.4060    1.4362   50.9091 H       1  ZINC000441887161    0.0800
     44 H44        -7.7004    3.1734   51.1616 H       1  ZINC000441887161    0.0700
     45 H45        -5.1933    0.0364   49.5371 H       1  ZINC000441887161    0.0800
     46 H46        -4.7046   -0.5699   51.1376 H       1  ZINC000441887161    0.0700
     47 H47        -6.3365    0.1000   50.9001 H       1  ZINC000441887161    0.0700
     48 H48        -2.7721    0.8923   51.2940 H       1  ZINC000441887161    0.1400
     49 H49        -0.2886    5.3656   48.2857 H       1  ZINC000441887161    0.0800
     50 H50         0.0368    4.8205   46.6228 H       1  ZINC000441887161    0.0700
     51 H51        -1.0175    3.8569   47.6849 H       1  ZINC000441887161    0.0600
     52 H52         2.4474    4.8005   46.9159 H       1  ZINC000441887161    0.1300
@<TRIPOS>BOND
     1     1     2    1
     2     1    29    1
     3     1    30    1
     4     1    31    1
     5     2    28   ar
     6     2     3   ar
     7     3     4   ar
     8     3    32    1
     9     4     5   ar
    10     4    33    1
    11     5     6    1
    12     5    26   ar
    13     6     7    1
    14     6     8    1
    15     6    14    1
    16     8     9    1
    17     8    34    1
    18     8    35    1
    19     9    13    1
    20     9    10    1
    21    10    11    2
    22    10    36    1
    23    11    12    1
    24    11    37    1
    25    12    13    2
    26    13    38    1
    27    14    15   am
    28    14    39    1
    29    15    16    2
    30    15    17    2
    31    15    18    1
    32    18    25   ar
    33    18    19   ar
    34    19    20   ar
    35    19    40    1
    36    20    21   ar
    37    20    41    1
    38    21    22    1
    39    21    23   ar
    40    22    42    1
    41    22    43    1
    42    22    44    1
    43    23    24    1
    44    23    25   ar
    45    24    45    1
    46    24    46    1
    47    24    47    1
    48    25    48    1
    49    26    27    1
    50    26    28   ar
    51    27    49    1
    52    27    50    1
    53    27    51    1
    54    28    52    1
@<TRIPOS>SUBSTRUCTURE
     1 ZINC000441887161        1 TEMP              0 ****  ****    0 ROOT


##########                                Name:    ZINC000854500114
##########                DOCK_Rotatable_Bonds:                   7
##########                         Heavy_Atoms:                  24
##########                    Molecular_Weight:             399.288
##########                DOCK_Rotatable_Bonds:                   7
##########                       Formal_Charge:          -0.0399992
##########                     HBond_Acceptors:                   7
##########                        HBond_Donors:                   2
##########                         Heavy_Atoms:                  24
##########                          Grid_Score:          -28.019211
##########                     Grid_vdw_energy:          -27.802298
##########                      Grid_es_energy:           -0.216914
##########           Internal_energy_repulsive:           74.638756

@<TRIPOS>MOLECULE
ZINC000854500114
 47 49 1 0 0
SMALL
USER_CHARGES


@<TRIPOS>ATOM
      1 O1         -4.6076    1.0191   49.5766 O.2     1  ZINC000854500114   -0.5800
      2 C2         -4.2544    1.6856   50.5293 C.2     1  ZINC000854500114    0.6600
      3 N3         -5.1730    2.3119   51.2913 N.am    1  ZINC000854500114   -0.7100
      4 C4         -6.5970    2.1939   50.9673 C.3     1  ZINC000854500114    0.1600
      5 C5         -7.2411    1.0778   51.8153 C.3     1  ZINC000854500114   -0.1400
      6 C6         -7.8555    1.8260   53.0243 C.3     1  ZINC000854500114   -0.1300
      7 C7         -8.3931    3.1291   52.3825 C.3     1  ZINC000854500114   -0.1300
      8 C8         -7.3294    3.4982   51.3280 C.3     1  ZINC000854500114   -0.1300
      9 O9         -2.9459    1.7940   50.8271 O.3     1  ZINC000854500114   -0.3600
     10 C10        -2.0053    1.6317   49.7329 C.3     1  ZINC000854500114    0.1000
     11 C11        -0.5800    1.5912   50.2875 C.3     1  ZINC000854500114    0.1500
     12 H12        -0.4423    0.6838   50.8755 H       1  ZINC000854500114    0.0900
     13 C13        -0.3380    2.8182   51.1723 C.3     1  ZINC000854500114   -0.1300
     14 C14         1.1280    2.8452   51.6104 C.3     1  ZINC000854500114   -0.1200
     15 C15         2.0287    2.9534   50.3779 C.3     1  ZINC000854500114   -0.1400
     16 C16         1.8136    1.7279   49.4841 C.3     1  ZINC000854500114    0.0900
     17 N17         0.3815    1.6087   49.1766 N.am    1  ZINC000854500114   -0.6100
     18 C18        -0.0419    1.5224   47.8999 C.2     1  ZINC000854500114    0.5900
     19 O19        -1.2300    1.4241   47.6586 O.2     1  ZINC000854500114   -0.4900
     20 C20         0.9332    1.5471   46.7981 C.2     1  ZINC000854500114   -0.0300
     21 C21         1.7034    0.4894   46.3468 C.2     1  ZINC000854500114   -0.1200
     22 C22         2.4627    1.0074   45.2942 C.2     1  ZINC000854500114    0.0200
     23 Br23        3.7215    0.0533   44.2542 Br      1  ZINC000854500114    0.0400
     24 N24         2.1474    2.2704   45.1557 N.2     1  ZINC000854500114   -0.2400
     25 N25         1.2552    2.6168   46.0122 N.pl3   1  ZINC000854500114   -0.3700
     26 H26        -4.8915    2.8407   52.0541 H       1  ZINC000854500114    0.4000
     27 H27        -6.7214    1.9768   49.9064 H       1  ZINC000854500114    0.0900
     28 H28        -8.0188    0.5676   51.2470 H       1  ZINC000854500114    0.0800
     29 H29        -6.4844    0.3682   52.1503 H       1  ZINC000854500114    0.0700
     30 H30        -8.6685    1.2479   53.4638 H       1  ZINC000854500114    0.0700
     31 H31        -7.0919    2.0488   53.7694 H       1  ZINC000854500114    0.0700
     32 H32        -9.3568    2.9502   51.9058 H       1  ZINC000854500114    0.0700
     33 H33        -8.4771    3.9167   53.1314 H       1  ZINC000854500114    0.0700
     34 H34        -6.6254    4.2190   51.7440 H       1  ZINC000854500114    0.0700
     35 H35        -7.8100    3.9136   50.4422 H       1  ZINC000854500114    0.0800
     36 H36        -2.2171    0.7010   49.2067 H       1  ZINC000854500114    0.1000
     37 H37        -2.1029    2.4696   49.0426 H       1  ZINC000854500114    0.0700
     38 H38        -0.5662    3.7232   50.6094 H       1  ZINC000854500114    0.0800
     39 H39        -0.9797    2.7647   52.0518 H       1  ZINC000854500114    0.0900
     40 H40         1.2971    3.7037   52.2602 H       1  ZINC000854500114    0.0800
     41 H41         1.3622    1.9286   52.1519 H       1  ZINC000854500114    0.0700
     42 H42         1.7782    3.8571   49.8224 H       1  ZINC000854500114    0.0700
     43 H43         3.0716    2.9961   50.6919 H       1  ZINC000854500114    0.0800
     44 H44         2.3775    1.8470   48.5588 H       1  ZINC000854500114    0.0800
     45 H45         2.1489    0.8317   50.0060 H       1  ZINC000854500114    0.0800
     46 H46         1.7152   -0.5212   46.7273 H       1  ZINC000854500114    0.1700
     47 H47         0.8728    3.5046   46.0927 H       1  ZINC000854500114    0.4500
@<TRIPOS>BOND
     1     1     2    2
     2     2     3   am
     3     2     9    1
     4     3     4    1
     5     3    26    1
     6     4     8    1
     7     4     5    1
     8     4    27    1
     9     5     6    1
    10     5    28    1
    11     5    29    1
    12     6     7    1
    13     6    30    1
    14     6    31    1
    15     7     8    1
    16     7    32    1
    17     7    33    1
    18     8    34    1
    19     8    35    1
    20     9    10    1
    21    10    11    1
    22    10    36    1
    23    10    37    1
    24    11    12    1
    25    11    17    1
    26    11    13    1
    27    13    14    1
    28    13    38    1
    29    13    39    1
    30    14    15    1
    31    14    40    1
    32    14    41    1
    33    15    16    1
    34    15    42    1
    35    15    43    1
    36    16    17    1
    37    16    44    1
    38    16    45    1
    39    17    18   am
    40    18    19    2
    41    18    20    1
    42    20    25    1
    43    20    21    2
    44    21    22    1
    45    21    46    1
    46    22    23    1
    47    22    24    2
    48    24    25    1
    49    25    47    1
@<TRIPOS>SUBSTRUCTURE
     1 ZINC000854500114        1 TEMP              0 ****  ****    0 ROOT


##########                                Name:    ZINC000951315041
##########                DOCK_Rotatable_Bonds:                   5
##########                         Heavy_Atoms:                  25
##########                    Molecular_Weight:             340.382
##########                DOCK_Rotatable_Bonds:                   5
##########                       Formal_Charge:          0.00999974
##########                     HBond_Acceptors:                   7
##########                        HBond_Donors:                   1
##########                         Heavy_Atoms:                  25
##########                          Grid_Score:          -28.011368
##########                     Grid_vdw_energy:          -26.575201
##########                      Grid_es_energy:           -1.436167
##########           Internal_energy_repulsive:            9.721155

@<TRIPOS>MOLECULE
ZINC000951315041
 45 47 1 0 0
SMALL
USER_CHARGES


@<TRIPOS>ATOM
      1 C1         -4.8332    0.2089   50.8201 C.3     1  ZINC000951315041    0.0500
      2 N2         -4.0855    1.4625   50.9439 N.am    1  ZINC000951315041   -0.4900
      3 C3         -4.6406    2.5036   51.5919 C.2     1  ZINC000951315041    0.1700
      4 C4         -3.9547    3.6940   51.7202 C.2     1  ZINC000951315041   -0.2400
      5 C5         -4.5671    4.8316   52.4310 C.2     1  ZINC000951315041    0.5800
      6 O6         -5.2151    5.6558   51.8149 O.2     1  ZINC000951315041   -0.5200
      7 N7         -4.4086    4.9580   53.7634 N.am    1  ZINC000951315041   -0.6000
      8 C8         -5.0127    6.0859   54.4855 C.3     1  ZINC000951315041    0.1100
      9 C9         -3.9211    6.7966   55.2918 C.3     1  ZINC000951315041   -0.1300
     10 C10        -3.2140    5.7805   56.1917 C.3     1  ZINC000951315041   -0.1300
     11 C11        -2.5528    4.7044   55.3273 C.3     1  ZINC000951315041    0.1300
     12 H12        -1.8425    5.1713   54.6451 H       1  ZINC000951315041    0.1000
     13 N13        -1.8491    3.7502   56.1880 N.am    1  ZINC000951315041   -0.7200
     14 C14        -0.6032    4.0257   56.6218 C.2     1  ZINC000951315041    0.5700
     15 O15        -0.0628    5.0652   56.2978 O.2     1  ZINC000951315041   -0.5200
     16 C16         0.1063    3.0637   57.4918 C.ar    1  ZINC000951315041   -0.1900
     17 C17         1.4553    3.2551   57.8130 C.ar    1  ZINC000951315041   -0.0100
     18 C18         2.0729    2.3257   58.6315 C.ar    1  ZINC000951315041   -0.1800
     19 C19         1.3448    1.2479   59.1017 C.ar    1  ZINC000951315041    0.1300
     20 N20         0.0740    1.0928   58.7820 N.ar    1  ZINC000951315041   -0.4900
     21 C21        -0.5592    1.9525   58.0115 C.ar    1  ZINC000951315041    0.1400
     22 C22        -3.6336    3.9669   54.5224 C.3     1  ZINC000951315041    0.1000
     23 C23        -2.6579    3.8146   51.1643 C.2     1  ZINC000951315041    0.0100
     24 C24        -2.1174    2.7494   50.5146 C.2     1  ZINC000951315041   -0.2300
     25 C25        -2.8527    1.5535   50.4130 C.2     1  ZINC000951315041    0.5100
     26 O26        -2.3720    0.5952   49.8315 O.2     1  ZINC000951315041   -0.5400
     27 H27        -4.2333   -0.5195   50.2744 H       1  ZINC000951315041    0.1100
     28 H28        -5.0600   -0.1785   51.8134 H       1  ZINC000951315041    0.0800
     29 H29        -5.7623    0.3917   50.2804 H       1  ZINC000951315041    0.0800
     30 H30        -5.6299    2.4065   52.0141 H       1  ZINC000951315041    0.1700
     31 H31        -5.4524    6.7830   53.7723 H       1  ZINC000951315041    0.1000
     32 H32        -5.7839    5.7163   55.1612 H       1  ZINC000951315041    0.0700
     33 H33        -3.1980    7.2438   54.6098 H       1  ZINC000951315041    0.0700
     34 H34        -4.3718    7.5755   55.9068 H       1  ZINC000951315041    0.0900
     35 H35        -2.4531    6.2882   56.7845 H       1  ZINC000951315041    0.0800
     36 H36        -3.9420    5.3157   56.8566 H       1  ZINC000951315041    0.0700
     37 H37        -2.2798    2.9202   56.4456 H       1  ZINC000951315041    0.4000
     38 H38         2.0001    4.1060   57.4314 H       1  ZINC000951315041    0.1500
     39 H39         3.1127    2.4407   58.9000 H       1  ZINC000951315041    0.1500
     40 H40         1.8243    0.5211   59.7406 H       1  ZINC000951315041    0.1600
     41 H41        -1.6000    1.7915   57.7723 H       1  ZINC000951315041    0.1600
     42 H42        -4.2903    3.4250   55.2029 H       1  ZINC000951315041    0.0700
     43 H43        -3.1618    3.2675   53.8322 H       1  ZINC000951315041    0.0900
     44 H44        -2.1066    4.7389   51.2548 H       1  ZINC000951315041    0.1400
     45 H45        -1.1300    2.8195   50.0826 H       1  ZINC000951315041    0.1600
@<TRIPOS>BOND
     1     1     2    1
     2     1    27    1
     3     1    28    1
     4     1    29    1
     5     2    25   am
     6     2     3    1
     7     3     4    2
     8     3    30    1
     9     4     5    1
    10     4    23    1
    11     5     6    2
    12     5     7   am
    13     7    22    1
    14     7     8    1
    15     8     9    1
    16     8    31    1
    17     8    32    1
    18     9    10    1
    19     9    33    1
    20     9    34    1
    21    10    11    1
    22    10    35    1
    23    10    36    1
    24    11    12    1
    25    11    13    1
    26    11    22    1
    27    13    14   am
    28    13    37    1
    29    14    15    2
    30    14    16    1
    31    16    21   ar
    32    16    17   ar
    33    17    18   ar
    34    17    38    1
    35    18    19   ar
    36    18    39    1
    37    19    20   ar
    38    19    40    1
    39    20    21   ar
    40    21    41    1
    41    22    42    1
    42    22    43    1
    43    23    24    2
    44    23    44    1
    45    24    25    1
    46    24    45    1
    47    25    26    2
@<TRIPOS>SUBSTRUCTURE
     1 ZINC000951315041        1 TEMP              0 ****  ****    0 ROOT


##########                                Name:    ZINC001091652821
##########                DOCK_Rotatable_Bonds:                   4
##########                         Heavy_Atoms:                  24
##########                    Molecular_Weight:             345.465
##########                DOCK_Rotatable_Bonds:                   4
##########                       Formal_Charge:          -0.0199997
##########                     HBond_Acceptors:                   6
##########                        HBond_Donors:                   0
##########                         Heavy_Atoms:                  24
##########                          Grid_Score:          -28.000225
##########                     Grid_vdw_energy:          -27.918983
##########                      Grid_es_energy:           -0.081242
##########           Internal_energy_repulsive:            6.457838

@<TRIPOS>MOLECULE
ZINC001091652821
 47 50 1 0 0
SMALL
USER_CHARGES


@<TRIPOS>ATOM
      1 C1         -5.9233    0.3812   50.5416 C.3     1  ZINC001091652821   -0.1000
      2 C2         -5.3096    1.7015   50.9305 C.2     1  ZINC001091652821   -0.1200
      3 C3         -6.0254    2.8288   51.0155 C.2     1  ZINC001091652821   -0.2400
      4 S4         -5.0409    4.1436   51.4771 S.3     1  ZINC001091652821    0.2100
      5 C5         -3.6179    3.1136   51.5529 C.2     1  ZINC001091652821   -0.2700
      6 C6         -2.2667    3.5549   51.9112 C.2     1  ZINC001091652821    0.6100
      7 O7         -1.3075    3.1525   51.2795 O.2     1  ZINC001091652821   -0.5200
      8 N8         -2.0868    4.4063   52.9405 N.am    1  ZINC001091652821   -0.6200
      9 C9         -3.1338    4.9772   53.8035 C.3     1  ZINC001091652821    0.0900
     10 C10        -2.4939    5.1791   55.1869 C.3     1  ZINC001091652821   -0.0900
     11 H11        -2.8211    6.1063   55.6574 H       1  ZINC001091652821    0.1100
     12 C12        -2.7928    3.9466   56.0657 C.3     1  ZINC001091652821    0.0400
     13 N13        -1.5054    3.6450   56.7420 N.3     1  ZINC001091652821   -0.5000
     14 C14        -1.4724    2.2549   57.2157 C.3     1  ZINC001091652821    0.1200
     15 C15        -0.4959    2.1362   58.3573 C.2     1  ZINC001091652821    0.0000
     16 C16        -0.2733    3.0574   59.3092 C.2     1  ZINC001091652821   -0.0800
     17 O17         0.6701    2.5581   60.1315 O.3     1  ZINC001091652821   -0.2000
     18 C18         1.0102    1.3456   59.6745 C.2     1  ZINC001091652821    0.1900
     19 C19         2.0338    0.4294   60.2941 C.3     1  ZINC001091652821   -0.0600
     20 N20         0.3058    1.0864   58.6099 N.2     1  ZINC001091652821   -0.4700
     21 C21        -0.4798    3.8741   55.6924 C.3     1  ZINC001091652821    0.0400
     22 C22        -0.9639    5.1590   54.9360 C.3     1  ZINC001091652821   -0.0700
     23 C23        -0.2518    6.4195   55.4309 C.3     1  ZINC001091652821   -0.1300
     24 C24        -0.8042    4.9419   53.4251 C.3     1  ZINC001091652821    0.1200
     25 C25        -3.9744    1.8346   51.2297 C.2     1  ZINC001091652821   -0.0500
     26 H26        -6.2730   -0.1344   51.4360 H       1  ZINC001091652821    0.0700
     27 H27        -6.7644    0.5552   49.8704 H       1  ZINC001091652821    0.0700
     28 H28        -5.1767   -0.2321   50.0372 H       1  ZINC001091652821    0.0700
     29 H29        -7.0850    2.8974   50.8177 H       1  ZINC001091652821    0.1700
     30 H30        -3.4682    5.9341   53.4027 H       1  ZINC001091652821    0.0800
     31 H31        -3.9747    4.2876   53.8774 H       1  ZINC001091652821    0.0800
     32 H32        -3.5621    4.1819   56.8011 H       1  ZINC001091652821    0.0800
     33 H33        -3.1028    3.1048   55.4466 H       1  ZINC001091652821    0.0500
     34 H34        -2.4661    1.9633   57.5558 H       1  ZINC001091652821    0.0500
     35 H35        -1.1607    1.6008   56.4014 H       1  ZINC001091652821    0.1000
     36 H36        -0.7592    4.0179   59.3985 H       1  ZINC001091652821    0.2100
     37 H37         2.4601    0.9053   61.1773 H       1  ZINC001091652821    0.0900
     38 H38         1.5565   -0.5075   60.5810 H       1  ZINC001091652821    0.1000
     39 H39         2.8253    0.2278   59.5722 H       1  ZINC001091652821    0.1000
     40 H40         0.4946    4.0548   56.1464 H       1  ZINC001091652821    0.0900
     41 H41        -0.4320    3.0211   55.0155 H       1  ZINC001091652821    0.0500
     42 H42         0.8198    6.3236   55.2560 H       1  ZINC001091652821    0.0600
     43 H43        -0.6317    7.2869   54.8913 H       1  ZINC001091652821    0.0600
     44 H44        -0.4361    6.5457   56.4977 H       1  ZINC001091652821    0.0700
     45 H45        -0.0168    4.2129   53.2331 H       1  ZINC001091652821    0.0900
     46 H46        -0.5681    5.8862   52.9345 H       1  ZINC001091652821    0.0800
     47 H47        -3.2754    1.0118   51.2042 H       1  ZINC001091652821    0.1500
@<TRIPOS>BOND
     1     1     2    1
     2     1    26    1
     3     1    27    1
     4     1    28    1
     5     2    25    1
     6     2     3    2
     7     3     4    1
     8     3    29    1
     9     4     5    1
    10     5     6    1
    11     5    25    2
    12     6     7    2
    13     6     8   am
    14     8    24    1
    15     8     9    1
    16     9    10    1
    17     9    30    1
    18     9    31    1
    19    10    11    1
    20    10    22    1
    21    10    12    1
    22    12    13    1
    23    12    32    1
    24    12    33    1
    25    13    14    1
    26    13    21    1
    27    14    15    1
    28    14    34    1
    29    14    35    1
    30    15    20    1
    31    15    16    2
    32    16    17    1
    33    16    36    1
    34    17    18    1
    35    18    19    1
    36    18    20    2
    37    19    37    1
    38    19    38    1
    39    19    39    1
    40    21    22    1
    41    21    40    1
    42    21    41    1
    43    22    23    1
    44    22    24    1
    45    23    42    1
    46    23    43    1
    47    23    44    1
    48    24    45    1
    49    24    46    1
    50    25    47    1
@<TRIPOS>SUBSTRUCTURE
     1 ZINC001091652821        1 TEMP              0 ****  ****    0 ROOT


##########                                Name:    ZINC000176150038
##########                DOCK_Rotatable_Bonds:                   4
##########                         Heavy_Atoms:                  23
##########                    Molecular_Weight:             333.712
##########                DOCK_Rotatable_Bonds:                   4
##########                       Formal_Charge:        -2.23517e-07
##########                     HBond_Acceptors:                  10
##########                        HBond_Donors:                   1
##########                         Heavy_Atoms:                  23
##########                          Grid_Score:          -27.998993
##########                     Grid_vdw_energy:          -27.549576
##########                      Grid_es_energy:           -0.449418
##########           Internal_energy_repulsive:           13.583371

@<TRIPOS>MOLECULE
ZINC000176150038
 32 34 1 0 0
SMALL
USER_CHARGES


@<TRIPOS>ATOM
      1 C1         -0.8781    0.6934   45.1228 C.3     1  ZINC000176150038   -0.0900
      2 C2          0.0726    1.8536   44.9770 C.2     1  ZINC000176150038    0.2600
      3 N3          0.4320    2.4252   43.8574 N.2     1  ZINC000176150038   -0.3300
      4 N4          1.2541    3.3856   44.0830 N.2     1  ZINC000176150038   -0.0300
      5 N5          1.4755    3.4943   45.3487 N.2     1  ZINC000176150038   -0.0700
      6 N6          0.7070    2.4998   45.9789 N.pl3   1  ZINC000176150038   -0.3300
      7 C7          0.6233    2.2310   47.3536 C.ar    1  ZINC000176150038    0.1400
      8 C8          1.6873    1.6264   48.0087 C.ar    1  ZINC000176150038   -0.1000
      9 C9          1.6070    1.3612   49.3628 C.ar    1  ZINC000176150038   -0.1100
     10 C10         0.4667    1.6973   50.0692 C.ar    1  ZINC000176150038    0.1000
     11 F11         0.3910    1.4374   51.3928 F       1  ZINC000176150038   -0.1200
     12 C12        -0.6027    2.3035   49.4171 C.ar    1  ZINC000176150038    0.1300
     13 N13        -1.7570    2.6439   50.1312 N.am    1  ZINC000176150038   -0.6500
     14 C14        -2.6697    1.6976   50.4272 C.2     1  ZINC000176150038    0.5700
     15 O15        -2.4904    0.5488   50.0741 O.2     1  ZINC000176150038   -0.4800
     16 C16        -3.8933    2.0583   51.1841 C.ar    1  ZINC000176150038    0.1400
     17 N17        -3.9869    3.2358   51.7981 N.ar    1  ZINC000176150038   -0.4800
     18 C18        -5.0705    3.5596   52.4700 C.ar    1  ZINC000176150038    0.3000
     19 N19        -6.1024    2.7438   52.5662 N.ar    1  ZINC000176150038   -0.4800
     20 C20        -6.0894    1.5564   51.9857 C.ar    1  ZINC000176150038    0.1700
     21 C21        -4.9692    1.1707   51.2600 C.ar    1  ZINC000176150038   -0.1000
     22 Cl22       -4.9035   -0.3783   50.4788 Cl      1  ZINC000176150038    0.0100
     23 C23        -0.5207    2.5747   48.0593 C.ar    1  ZINC000176150038   -0.0800
     24 H24        -1.8953    1.0690   45.2342 H       1  ZINC000176150038    0.1100
     25 H25        -0.8191    0.0617   44.2365 H       1  ZINC000176150038    0.1100
     26 H26        -0.6075    0.1104   46.0032 H       1  ZINC000176150038    0.0900
     27 H27         2.5790    1.3624   47.4595 H       1  ZINC000176150038    0.1500
     28 H28         2.4361    0.8904   49.8701 H       1  ZINC000176150038    0.1600
     29 H29        -1.9001    3.5609   50.4131 H       1  ZINC000176150038    0.4300
     30 H30        -5.1164    4.5221   52.9577 H       1  ZINC000176150038    0.2200
     31 H31        -6.9400    0.8963   52.0711 H       1  ZINC000176150038    0.1900
     32 H32        -1.3492    3.0452   47.5507 H       1  ZINC000176150038    0.1700
@<TRIPOS>BOND
     1     1     2    1
     2     1    24    1
     3     1    25    1
     4     1    26    1
     5     2     6    1
     6     2     3    2
     7     3     4    1
     8     4     5    2
     9     5     6    1
    10     6     7    1
    11     7    23   ar
    12     7     8   ar
    13     8     9   ar
    14     8    27    1
    15     9    10   ar
    16     9    28    1
    17    10    11    1
    18    10    12   ar
    19    12    13    1
    20    12    23   ar
    21    13    14   am
    22    13    29    1
    23    14    15    2
    24    14    16    1
    25    16    21   ar
    26    16    17   ar
    27    17    18   ar
    28    18    19   ar
    29    18    30    1
    30    19    20   ar
    31    20    21   ar
    32    20    31    1
    33    21    22    1
    34    23    32    1
@<TRIPOS>SUBSTRUCTURE
     1 ZINC000176150038        1 TEMP              0 ****  ****    0 ROOT


##########                                Name:    ZINC000540473851
##########                DOCK_Rotatable_Bonds:                   5
##########                         Heavy_Atoms:                  29
##########                    Molecular_Weight:             411.503
##########                DOCK_Rotatable_Bonds:                   5
##########                       Formal_Charge:           0.0200001
##########                     HBond_Acceptors:                   8
##########                        HBond_Donors:                   0
##########                         Heavy_Atoms:                  29
##########                          Grid_Score:          -27.998268
##########                     Grid_vdw_energy:          -27.423569
##########                      Grid_es_energy:           -0.574699
##########           Internal_energy_repulsive:           25.688551

@<TRIPOS>MOLECULE
ZINC000540473851
 51 54 1 0 0
SMALL
USER_CHARGES


@<TRIPOS>ATOM
      1 C1         -8.2683    5.7289   55.6193 C.3     1  ZINC000540473851   -0.0800
      2 C2         -8.4587    4.2821   55.9955 C.2     1  ZINC000540473851    0.1500
      3 C3         -8.7592    3.3073   55.0816 C.2     1  ZINC000540473851   -0.3100
      4 C4         -8.9390    3.5003   53.6375 C.2     1  ZINC000540473851    0.6000
      5 O5        -10.0568    3.6363   53.1765 O.2     1  ZINC000540473851   -0.5100
      6 N6         -7.8660    3.5270   52.8225 N.am    1  ZINC000540473851   -0.6100
      7 C7         -6.5067    3.3587   53.3582 C.3     1  ZINC000540473851    0.1000
      8 C8         -5.7971    2.2664   52.5509 C.3     1  ZINC000540473851    0.0400
      9 N9         -5.8646    2.5967   51.1211 N.3     1  ZINC000540473851   -0.5300
     10 C10        -5.0503    1.6672   50.3270 C.3     1  ZINC000540473851    0.1200
     11 H11        -5.3361    1.7391   49.2775 H       1  ZINC000540473851    0.0500
     12 C12        -5.2800    0.2376   50.8213 C.3     1  ZINC000540473851   -0.1400
     13 C13        -3.5933    2.0222   50.4763 C.ar    1  ZINC000540473851   -0.0500
     14 C14        -2.6210    1.0774   50.2071 C.ar    1  ZINC000540473851   -0.1000
     15 C15        -1.2838    1.4016   50.3436 C.ar    1  ZINC000540473851   -0.0900
     16 C16        -0.9181    2.6709   50.7494 C.ar    1  ZINC000540473851   -0.1500
     17 C17        -1.8914    3.6184   51.0189 C.ar    1  ZINC000540473851    0.1000
     18 F18        -1.5349    4.8596   51.4156 F       1  ZINC000540473851   -0.1400
     19 C19        -3.2298    3.2942   50.8767 C.ar    1  ZINC000540473851   -0.1500
     20 C20        -7.2540    2.6186   50.6444 C.3     1  ZINC000540473851    0.0400
     21 C21        -8.0238    3.7192   51.3728 C.3     1  ZINC000540473851    0.1200
     22 S22        -8.8907    1.7798   55.9501 S.3     1  ZINC000540473851    0.2800
     23 C23        -8.5387    2.5732   57.4226 C.2     1  ZINC000540473851    0.0800
     24 C24        -8.4570    1.9067   58.7410 C.ar    1  ZINC000540473851    0.3800
     25 N25        -8.1811    2.6319   59.8175 N.ar    1  ZINC000540473851   -0.5100
     26 C26        -8.1009    2.0676   61.0095 C.ar    1  ZINC000540473851    0.1600
     27 C27        -8.3092    0.7008   61.1268 C.ar    1  ZINC000540473851   -0.2100
     28 C28        -8.5958   -0.0276   59.9811 C.ar    1  ZINC000540473851    0.1500
     29 N29        -8.6668    0.5989   58.8199 N.ar    1  ZINC000540473851   -0.4700
     30 N30        -8.3464    3.8456   57.2207 N.2     1  ZINC000540473851   -0.4300
     31 H31        -7.2206    5.9063   55.3760 H       1  ZINC000540473851    0.0900
     32 H32        -8.8871    5.9636   54.7532 H       1  ZINC000540473851    0.0800
     33 H33        -8.5594    6.3633   56.4565 H       1  ZINC000540473851    0.0800
     34 H34        -5.9582    4.2962   53.2667 H       1  ZINC000540473851    0.0900
     35 H35        -6.5600    3.0632   54.4060 H       1  ZINC000540473851    0.0900
     36 H36        -4.7538    2.2046   52.8610 H       1  ZINC000540473851    0.1000
     37 H37        -6.2865    1.3084   52.7265 H       1  ZINC000540473851    0.0400
     38 H38        -4.9943    0.1656   51.8707 H       1  ZINC000540473851    0.0700
     39 H39        -6.3339   -0.0192   50.7134 H       1  ZINC000540473851    0.0600
     40 H40        -4.6758   -0.4522   50.2321 H       1  ZINC000540473851    0.0600
     41 H41        -2.9060    0.0850   49.8903 H       1  ZINC000540473851    0.1400
     42 H42        -0.5249    0.6625   50.1334 H       1  ZINC000540473851    0.1300
     43 H43         0.1264    2.9237   50.8566 H       1  ZINC000540473851    0.1300
     44 H44        -3.9896    4.0324   51.0863 H       1  ZINC000540473851    0.1300
     45 H45        -7.2675    2.8123   49.5719 H       1  ZINC000540473851    0.1000
     46 H46        -7.7232    1.6557   50.8466 H       1  ZINC000540473851    0.0400
     47 H47        -9.0795    3.6648   51.1074 H       1  ZINC000540473851    0.1000
     48 H48        -7.6227    4.6932   51.0928 H       1  ZINC000540473851    0.0800
     49 H49        -7.8756    2.6628   61.8820 H       1  ZINC000540473851    0.1800
     50 H50        -8.2492    0.2142   62.0892 H       1  ZINC000540473851    0.1600
     51 H51        -8.7631   -1.0929   60.0384 H       1  ZINC000540473851    0.1800
@<TRIPOS>BOND
     1     1     2    1
     2     1    31    1
     3     1    32    1
     4     1    33    1
     5     2    30    1
     6     2     3    2
     7     3     4    1
     8     3    22    1
     9     4     5    2
    10     4     6   am
    11     6    21    1
    12     6     7    1
    13     7     8    1
    14     7    34    1
    15     7    35    1
    16     8     9    1
    17     8    36    1
    18     8    37    1
    19     9    10    1
    20     9    20    1
    21    10    11    1
    22    10    12    1
    23    10    13    1
    24    12    38    1
    25    12    39    1
    26    12    40    1
    27    13    19   ar
    28    13    14   ar
    29    14    15   ar
    30    14    41    1
    31    15    16   ar
    32    15    42    1
    33    16    17   ar
    34    16    43    1
    35    17    18    1
    36    17    19   ar
    37    19    44    1
    38    20    21    1
    39    20    45    1
    40    20    46    1
    41    21    47    1
    42    21    48    1
    43    22    23    1
    44    23    24    1
    45    23    30    2
    46    24    29   ar
    47    24    25   ar
    48    25    26   ar
    49    26    27   ar
    50    26    49    1
    51    27    28   ar
    52    27    50    1
    53    28    29   ar
    54    28    51    1
@<TRIPOS>SUBSTRUCTURE
     1 ZINC000540473851        1 TEMP              0 ****  ****    0 ROOT


##########                                Name:    ZINC000437443367
##########                DOCK_Rotatable_Bonds:                   8
##########                         Heavy_Atoms:                  24
##########                    Molecular_Weight:             334.434
##########                DOCK_Rotatable_Bonds:                   8
##########                       Formal_Charge:          -0.0500003
##########                     HBond_Acceptors:                   5
##########                        HBond_Donors:                   1
##########                         Heavy_Atoms:                  24
##########                          Grid_Score:          -27.945864
##########                     Grid_vdw_energy:          -28.167692
##########                      Grid_es_energy:            0.221828
##########           Internal_energy_repulsive:           30.290766

@<TRIPOS>MOLECULE
ZINC000437443367
 51 52 1 0 0
SMALL
USER_CHARGES


@<TRIPOS>ATOM
      1 C1         -6.8431    0.8043   50.6500 C.3     1  ZINC000437443367   -0.1200
      2 C2         -5.5740    1.4921   51.0825 C.ar    1  ZINC000437443367   -0.1000
      3 C3         -4.3550    1.0560   50.6028 C.ar    1  ZINC000437443367   -0.1200
      4 C4         -3.1852    1.6905   51.0020 C.ar    1  ZINC000437443367    0.1400
      5 N5         -1.9498    1.2509   50.5172 N.am    1  ZINC000437443367   -0.6400
      6 C6         -1.1304    2.1116   49.8813 C.2     1  ZINC000437443367    0.5000
      7 O7         -1.4650    3.2685   49.7296 O.2     1  ZINC000437443367   -0.4800
      8 C8          0.1893    1.6419   49.3634 C.2     1  ZINC000437443367    0.5100
      9 O9          1.0349    1.2381   50.1346 O.2     1  ZINC000437443367   -0.5200
     10 N10         0.4411    1.6666   48.0396 N.am    1  ZINC000437443367   -0.5700
     11 C11         1.7357    1.2059   47.5314 C.3     1  ZINC000437443367    0.0900
     12 C12         2.8252    2.2022   47.9334 C.3     1  ZINC000437443367   -0.1200
     13 C13         4.1613    1.7690   47.3268 C.3     1  ZINC000437443367   -0.0900
     14 C14         4.0411    1.7323   45.8019 C.3     1  ZINC000437443367   -0.1400
     15 C15         5.2507    2.7652   47.7288 C.3     1  ZINC000437443367   -0.1500
     16 C16        -0.5798    2.1540   47.1089 C.3     1  ZINC000437443367    0.1300
     17 C17        -0.1396    3.5015   46.5001 C.3     1  ZINC000437443367   -0.1300
     18 C18         0.5170    3.1129   45.1521 C.3     1  ZINC000437443367   -0.1300
     19 C19        -0.3843    1.9558   44.6540 C.3     1  ZINC000437443367   -0.1200
     20 C20        -0.7353    1.1713   45.9351 C.3     1  ZINC000437443367   -0.1400
     21 C21        -3.2450    2.7625   51.8831 C.ar    1  ZINC000437443367   -0.1100
     22 C22        -4.4666    3.1954   52.3604 C.ar    1  ZINC000437443367   -0.1300
     23 C23        -5.6317    2.5650   51.9567 C.ar    1  ZINC000437443367    0.0800
     24 F24        -6.8255    2.9901   52.4248 F       1  ZINC000437443367   -0.1400
     25 H25        -7.2271    1.2831   49.7492 H       1  ZINC000437443367    0.0800
     26 H26        -6.6350   -0.2454   50.4428 H       1  ZINC000437443367    0.0700
     27 H27        -7.5852    0.8776   51.4449 H       1  ZINC000437443367    0.0700
     28 H28        -4.3107    0.2220   49.9181 H       1  ZINC000437443367    0.1400
     29 H29        -1.6823    0.3264   50.6386 H       1  ZINC000437443367    0.4200
     30 H30         1.9643    0.2275   47.9537 H       1  ZINC000437443367    0.0900
     31 H31         1.6940    1.1320   46.4447 H       1  ZINC000437443367    0.1000
     32 H32         2.5638    3.1944   47.5656 H       1  ZINC000437443367    0.0700
     33 H33         2.9107    2.2282   49.0197 H       1  ZINC000437443367    0.0600
     34 H34         4.4226    0.7767   47.6947 H       1  ZINC000437443367    0.0600
     35 H35         3.7798    2.7245   45.4342 H       1  ZINC000437443367    0.0600
     36 H36         4.9930    1.4236   45.3699 H       1  ZINC000437443367    0.0400
     37 H37         3.2650    1.0225   45.5157 H       1  ZINC000437443367    0.0600
     38 H38         5.3363    2.7914   48.8150 H       1  ZINC000437443367    0.0500
     39 H39         6.2026    2.4566   47.2966 H       1  ZINC000437443367    0.0500
     40 H40         4.9894    3.7573   47.3609 H       1  ZINC000437443367    0.0500
     41 H41        -1.5317    2.2708   47.6268 H       1  ZINC000437443367    0.1000
     42 H42        -1.0034    4.1446   46.3322 H       1  ZINC000437443367    0.0800
     43 H43         0.5843    3.9948   47.1487 H       1  ZINC000437443367    0.0700
     44 H44         0.4916    3.9500   44.4545 H       1  ZINC000437443367    0.0700
     45 H45         1.5394    2.7675   45.3058 H       1  ZINC000437443367    0.0700
     46 H46        -1.2876    2.3493   44.1881 H       1  ZINC000437443367    0.0700
     47 H47         0.1611    1.3212   43.9554 H       1  ZINC000437443367    0.0700
     48 H48        -0.0513    0.3316   46.0579 H       1  ZINC000437443367    0.0800
     49 H49        -1.7630    0.8117   45.8829 H       1  ZINC000437443367    0.0700
     50 H50        -2.3371    3.2571   52.1950 H       1  ZINC000437443367    0.1600
     51 H51        -4.5137    4.0290   53.0455 H       1  ZINC000437443367    0.1400
@<TRIPOS>BOND
     1     1     2    1
     2     1    25    1
     3     1    26    1
     4     1    27    1
     5     2    23   ar
     6     2     3   ar
     7     3     4   ar
     8     3    28    1
     9     4     5    1
    10     4    21   ar
    11     5     6   am
    12     5    29    1
    13     6     7    2
    14     6     8    1
    15     8     9    2
    16     8    10   am
    17    10    11    1
    18    10    16    1
    19    11    12    1
    20    11    30    1
    21    11    31    1
    22    12    13    1
    23    12    32    1
    24    12    33    1
    25    13    14    1
    26    13    15    1
    27    13    34    1
    28    14    35    1
    29    14    36    1
    30    14    37    1
    31    15    38    1
    32    15    39    1
    33    15    40    1
    34    16    20    1
    35    16    17    1
    36    16    41    1
    37    17    18    1
    38    17    42    1
    39    17    43    1
    40    18    19    1
    41    18    44    1
    42    18    45    1
    43    19    20    1
    44    19    46    1
    45    19    47    1
    46    20    48    1
    47    20    49    1
    48    21    22   ar
    49    21    50    1
    50    22    23   ar
    51    22    51    1
    52    23    24    1
@<TRIPOS>SUBSTRUCTURE
     1 ZINC000437443367        1 TEMP              0 ****  ****    0 ROOT


##########                                Name:    ZINC001356153960
##########                DOCK_Rotatable_Bonds:                   8
##########                         Heavy_Atoms:                  24
##########                    Molecular_Weight:             334.366
##########                DOCK_Rotatable_Bonds:                   8
##########                       Formal_Charge:           0.0100003
##########                     HBond_Acceptors:                   6
##########                        HBond_Donors:                   1
##########                         Heavy_Atoms:                  24
##########                          Grid_Score:          -27.936131
##########                     Grid_vdw_energy:          -26.679298
##########                      Grid_es_energy:           -1.256833
##########           Internal_energy_repulsive:           14.320359

@<TRIPOS>MOLECULE
ZINC001356153960
 44 46 1 0 0
SMALL
USER_CHARGES


@<TRIPOS>ATOM
      1 O1         -0.7026    4.7223   56.0093 O.2     1  ZINC001356153960   -0.5200
      2 C2         -1.3198    3.8239   55.4760 C.2     1  ZINC001356153960    0.5100
      3 N3         -1.6360    2.7159   56.1754 N.am    1  ZINC001356153960   -0.7000
      4 C4         -1.2399    2.5990   57.5809 C.3     1  ZINC001356153960    0.1300
      5 C5          0.0018    1.7117   57.6888 C.3     1  ZINC001356153960   -0.0800
      6 H6         -0.1405    0.7905   57.1238 H       1  ZINC001356153960    0.0900
      7 C7          1.2220    2.4512   57.1914 C.2     1  ZINC001356153960   -0.1700
      8 C8          2.2338    2.2853   57.9991 C.2     1  ZINC001356153960   -0.1600
      9 C9          1.8571    1.4074   59.1699 C.3     1  ZINC001356153960   -0.1000
     10 C10         0.3090    1.3929   59.1704 C.3     1  ZINC001356153960   -0.1200
     11 C11        -1.7239    3.9431   54.0422 C.2     1  ZINC001356153960    0.5100
     12 O12        -0.9544    3.6094   53.1652 O.2     1  ZINC001356153960   -0.5100
     13 N13        -2.9430    4.4212   53.7232 N.am    1  ZINC001356153960   -0.5500
     14 C14        -3.3392    4.5381   52.3176 C.3     1  ZINC001356153960    0.1300
     15 C15        -3.6967    3.1759   51.7816 C.ar    1  ZINC001356153960   -0.1600
     16 C16        -2.7941    2.4837   50.9969 C.ar    1  ZINC001356153960   -0.0300
     17 C17        -3.1185    1.2317   50.5091 C.ar    1  ZINC001356153960   -0.1700
     18 C18        -4.3528    0.6745   50.7969 C.ar    1  ZINC001356153960    0.1400
     19 F19        -4.6717   -0.5470   50.3158 F       1  ZINC001356153960   -0.1300
     20 C20        -5.2602    1.3695   51.5783 C.ar    1  ZINC001356153960   -0.2000
     21 C21        -4.9321    2.6205   52.0708 C.ar    1  ZINC001356153960    0.1500
     22 F22        -5.8166    3.2999   52.8330 F       1  ZINC001356153960   -0.1200
     23 C23        -3.8720    4.8239   54.7820 C.3     1  ZINC001356153960    0.0700
     24 C24        -4.6394    6.1333   54.5880 C.3     1  ZINC001356153960   -0.1900
     25 C25        -3.5053    6.0551   55.6131 C.3     1  ZINC001356153960   -0.1800
     26 H26        -2.1258    1.9961   55.7481 H       1  ZINC001356153960    0.4100
     27 H27        -1.0149    3.5887   57.9786 H       1  ZINC001356153960    0.0800
     28 H28        -2.0549    2.1546   58.1524 H       1  ZINC001356153960    0.0800
     29 H29         1.2527    3.0400   56.2866 H       1  ZINC001356153960    0.1200
     30 H30         3.2117    2.7187   57.8504 H       1  ZINC001356153960    0.1300
     31 H31         2.2447    0.3986   59.0282 H       1  ZINC001356153960    0.0800
     32 H32         2.2356    1.8317   60.0999 H       1  ZINC001356153960    0.0700
     33 H33        -0.0890    2.1660   59.8277 H       1  ZINC001356153960    0.0800
     34 H34        -0.0747    0.4108   59.4470 H       1  ZINC001356153960    0.0800
     35 H35        -4.2026    5.1983   52.2373 H       1  ZINC001356153960    0.0900
     36 H36        -2.5117    4.9502   51.7400 H       1  ZINC001356153960    0.1400
     37 H37        -1.8329    2.9196   50.7678 H       1  ZINC001356153960    0.1600
     38 H38        -2.4107    0.6899   49.8992 H       1  ZINC001356153960    0.1400
     39 H39        -6.2233    0.9358   51.8031 H       1  ZINC001356153960    0.1500
     40 H40        -4.3875    4.0090   55.2901 H       1  ZINC001356153960    0.1400
     41 H41        -4.4531    6.6951   53.6727 H       1  ZINC001356153960    0.1400
     42 H42        -5.6596    6.1798   54.9689 H       1  ZINC001356153960    0.0900
     43 H43        -3.7798    6.0502   56.6679 H       1  ZINC001356153960    0.1000
     44 H44        -2.5727    6.5654   55.3721 H       1  ZINC001356153960    0.0900
@<TRIPOS>BOND
     1     1     2    2
     2     2     3   am
     3     2    11    1
     4     3     4    1
     5     3    26    1
     6     4     5    1
     7     4    27    1
     8     4    28    1
     9     5     6    1
    10     5    10    1
    11     5     7    1
    12     7     8    2
    13     7    29    1
    14     8     9    1
    15     8    30    1
    16     9    10    1
    17     9    31    1
    18     9    32    1
    19    10    33    1
    20    10    34    1
    21    11    12    2
    22    11    13   am
    23    13    14    1
    24    13    23    1
    25    14    15    1
    26    14    35    1
    27    14    36    1
    28    15    21   ar
    29    15    16   ar
    30    16    17   ar
    31    16    37    1
    32    17    18   ar
    33    17    38    1
    34    18    19    1
    35    18    20   ar
    36    20    21   ar
    37    20    39    1
    38    21    22    1
    39    23    25    1
    40    23    24    1
    41    23    40    1
    42    24    25    1
    43    24    41    1
    44    24    42    1
    45    25    43    1
    46    25    44    1
@<TRIPOS>SUBSTRUCTURE
     1 ZINC001356153960        1 TEMP              0 ****  ****    0 ROOT


##########                                Name:    ZINC000330515179
##########                DOCK_Rotatable_Bonds:                   4
##########                         Heavy_Atoms:                  21
##########                    Molecular_Weight:             378.287
##########                DOCK_Rotatable_Bonds:                   4
##########                       Formal_Charge:           0.0200002
##########                     HBond_Acceptors:                   6
##########                        HBond_Donors:                   0
##########                         Heavy_Atoms:                  21
##########                          Grid_Score:          -27.888794
##########                     Grid_vdw_energy:          -26.781096
##########                      Grid_es_energy:           -1.107699
##########           Internal_energy_repulsive:            8.024746

@<TRIPOS>MOLECULE
ZINC000330515179
 41 42 1 0 0
SMALL
USER_CHARGES


@<TRIPOS>ATOM
      1 C1         -5.4920   -0.2363   50.5355 C.3     1  ZINC000330515179    0.0300
      2 O2         -4.1584    0.1762   50.2293 O.3     1  ZINC000330515179   -0.3800
      3 C3         -3.8715    1.5291   50.5891 C.3     1  ZINC000330515179    0.0700
      4 C4         -2.4139    1.8484   50.2512 C.3     1  ZINC000330515179    0.0800
      5 H5         -1.7679    1.0660   50.6497 H       1  ZINC000330515179    0.0800
      6 C6         -2.0279    3.1962   50.8715 C.3     1  ZINC000330515179    0.0900
      7 N7         -0.6918    3.5679   50.3794 N.am    1  ZINC000330515179   -1.0000
      8 S8          0.5067    4.0224   51.4279 S.o2    1  ZINC000330515179    2.6900
      9 O9          0.9806    5.2826   50.9734 O.2     1  ZINC000330515179   -0.9400
     10 O10        -0.0035    3.8101   52.7370 O.2     1  ZINC000330515179   -0.9500
     11 C11         1.8379    2.8866   51.2224 C.ar    1  ZINC000330515179   -0.6700
     12 C12         2.9775    3.2734   50.5421 C.ar    1  ZINC000330515179   -0.0100
     13 C13         4.0222    2.3828   50.3810 C.ar    1  ZINC000330515179   -0.1100
     14 C14         3.9273    1.1044   50.9007 C.ar    1  ZINC000330515179   -0.0400
     15 Br15        5.3565   -0.1143   50.6812 Br      1  ZINC000330515179   -0.0300
     16 C16         2.7869    0.7178   51.5814 C.ar    1  ZINC000330515179   -0.1100
     17 C17         1.7448    1.6108   51.7466 C.ar    1  ZINC000330515179   -0.0100
     18 C18        -0.4524    3.5243   48.9282 C.3     1  ZINC000330515179    0.1000
     19 C19        -0.9151    2.1606   48.4026 C.3     1  ZINC000330515179    0.1000
     20 C20        -0.8593    2.1564   46.8737 C.3     1  ZINC000330515179   -0.1400
     21 C21         0.0008    1.0642   48.9505 C.3     1  ZINC000330515179   -0.1800
     22 O22        -2.2574    1.9203   48.8321 O.3     1  ZINC000330515179   -0.3500
     23 H23        -5.6299   -1.2741   50.2322 H       1  ZINC000330515179    0.0900
     24 H24        -5.6631   -0.1456   51.6083 H       1  ZINC000330515179    0.0400
     25 H25        -6.2000    0.3961   49.9999 H       1  ZINC000330515179    0.0400
     26 H26        -4.5282    2.1996   50.0349 H       1  ZINC000330515179    0.0600
     27 H27        -4.0343    1.6630   51.6585 H       1  ZINC000330515179    0.0700
     28 H28        -2.7519    3.9562   50.5779 H       1  ZINC000330515179    0.0900
     29 H29        -2.0077    3.1080   51.9578 H       1  ZINC000330515179    0.1000
     30 H30         3.0512    4.2714   50.1359 H       1  ZINC000330515179    0.1500
     31 H31         4.9122    2.6849   49.8491 H       1  ZINC000330515179    0.1500
     32 H32         2.7124   -0.2801   51.9874 H       1  ZINC000330515179    0.1500
     33 H33         0.8544    1.3091   52.2780 H       1  ZINC000330515179    0.1500
     34 H34        -1.0178    4.3174   48.4389 H       1  ZINC000330515179    0.0900
     35 H35         0.6112    3.6534   48.7276 H       1  ZINC000330515179    0.1000
     36 H36         0.1636    2.3433   46.5469 H       1  ZINC000330515179    0.0800
     37 H37        -1.1884    1.1865   46.5007 H       1  ZINC000330515179    0.0700
     38 H38        -1.5134    2.9365   46.4841 H       1  ZINC000330515179    0.0700
     39 H39        -0.0409    1.0666   50.0397 H       1  ZINC000330515179    0.0600
     40 H40        -0.3289    0.0950   48.5764 H       1  ZINC000330515179    0.0700
     41 H41         1.0245    1.2501   48.6255 H       1  ZINC000330515179    0.0700
@<TRIPOS>BOND
     1     1     2    1
     2     1    23    1
     3     1    24    1
     4     1    25    1
     5     2     3    1
     6     3     4    1
     7     3    26    1
     8     3    27    1
     9     4     5    1
    10     4    22    1
    11     4     6    1
    12     6     7    1
    13     6    28    1
    14     6    29    1
    15     7     8   am
    16     7    18    1
    17     8     9    2
    18     8    10    2
    19     8    11    1
    20    11    17   ar
    21    11    12   ar
    22    12    13   ar
    23    12    30    1
    24    13    14   ar
    25    13    31    1
    26    14    15    1
    27    14    16   ar
    28    16    17   ar
    29    16    32    1
    30    17    33    1
    31    18    19    1
    32    18    34    1
    33    18    35    1
    34    19    20    1
    35    19    21    1
    36    19    22    1
    37    20    36    1
    38    20    37    1
    39    20    38    1
    40    21    39    1
    41    21    40    1
    42    21    41    1
@<TRIPOS>SUBSTRUCTURE
     1 ZINC000330515179        1 TEMP              0 ****  ****    0 ROOT


##########                                Name:    ZINC000182378855
##########                DOCK_Rotatable_Bonds:                   8
##########                         Heavy_Atoms:                  27
##########                    Molecular_Weight:              394.83
##########                DOCK_Rotatable_Bonds:                   8
##########                       Formal_Charge:          -0.0200001
##########                     HBond_Acceptors:                   8
##########                        HBond_Donors:                   1
##########                         Heavy_Atoms:                  27
##########                          Grid_Score:          -27.867575
##########                     Grid_vdw_energy:          -28.282621
##########                      Grid_es_energy:            0.415047
##########           Internal_energy_repulsive:           12.247373

@<TRIPOS>MOLECULE
ZINC000182378855
 47 49 1 0 0
SMALL
USER_CHARGES


@<TRIPOS>ATOM
      1 C1          1.8098    0.2872   43.0162 C.3     1  ZINC000182378855    0.0300
      2 O2          0.4689    0.4642   43.4773 O.3     1  ZINC000182378855   -0.3900
      3 C3          0.3732    1.0713   44.7674 C.3     1  ZINC000182378855    0.0600
      4 C4         -1.0955    1.3522   45.0912 C.3     1  ZINC000182378855    0.0700
      5 O5         -1.2017    1.8547   46.4248 O.3     1  ZINC000182378855   -0.2900
      6 C6         -0.8754    3.1572   46.6201 C.ar    1  ZINC000182378855    0.3300
      7 C7         -0.8273    3.6664   47.9109 C.ar    1  ZINC000182378855   -0.1300
      8 C8         -0.4901    5.0086   48.0957 C.ar    1  ZINC000182378855   -0.0600
      9 C9         -0.4254    5.5966   49.4542 C.2     1  ZINC000182378855    0.5600
     10 O10        -0.1727    6.7769   49.5939 O.2     1  ZINC000182378855   -0.5200
     11 N11        -0.6468    4.8223   50.5348 N.am    1  ZINC000182378855   -0.7100
     12 C12        -0.5811    5.4033   51.8782 C.3     1  ZINC000182378855    0.1200
     13 H13        -1.0553    6.3846   51.8924 H       1  ZINC000182378855    0.1100
     14 C14         0.8857    5.5038   52.3533 C.3     1  ZINC000182378855   -0.1700
     15 C15         0.9338    4.6121   53.6139 C.3     1  ZINC000182378855    0.0400
     16 O16        -0.1583    3.6815   53.4495 O.3     1  ZINC000182378855   -0.3600
     17 C17        -1.2456    4.4627   52.9078 C.3     1  ZINC000182378855    0.1100
     18 H18        -1.7262    5.0421   53.6961 H       1  ZINC000182378855    0.1000
     19 C19        -2.2483    3.5659   52.2285 C.ar    1  ZINC000182378855   -0.0500
     20 C20        -1.8321    2.3881   51.6369 C.ar    1  ZINC000182378855   -0.1100
     21 C21        -2.7515    1.5613   51.0181 C.ar    1  ZINC000182378855   -0.0800
     22 C22        -4.0870    1.9176   50.9808 C.ar    1  ZINC000182378855   -0.0700
     23 Cl23       -5.2406    0.8829   50.1984 Cl      1  ZINC000182378855   -0.0400
     24 C24        -4.5040    3.1012   51.5689 C.ar    1  ZINC000182378855    0.1200
     25 F25        -5.8086    3.4508   51.5338 F       1  ZINC000182378855   -0.1200
     26 C26        -3.5829    3.9247   52.1927 C.ar    1  ZINC000182378855   -0.1300
     27 C27        -0.2144    5.7834   46.9636 C.ar    1  ZINC000182378855   -0.1900
     28 C28        -0.2850    5.1983   45.7156 C.ar    1  ZINC000182378855    0.1400
     29 N29        -0.6018    3.9254   45.5796 N.ar    1  ZINC000182378855   -0.5200
     30 H30         2.3524   -0.3513   43.7133 H       1  ZINC000182378855    0.0400
     31 H31         1.7967   -0.1790   42.0311 H       1  ZINC000182378855    0.0900
     32 H32         2.3031    1.2572   42.9526 H       1  ZINC000182378855    0.0400
     33 H33         0.7883    0.3981   45.5175 H       1  ZINC000182378855    0.0600
     34 H34         0.9315    2.0075   44.7707 H       1  ZINC000182378855    0.0700
     35 H35        -1.4868    2.0914   44.3922 H       1  ZINC000182378855    0.0800
     36 H36        -1.6698    0.4298   45.0038 H       1  ZINC000182378855    0.0800
     37 H37        -1.0476    3.0345   48.7586 H       1  ZINC000182378855    0.1600
     38 H38        -0.8496    3.8803   50.4232 H       1  ZINC000182378855    0.4000
     39 H39         1.5619    5.1212   51.5888 H       1  ZINC000182378855    0.0900
     40 H40         1.1359    6.5345   52.6048 H       1  ZINC000182378855    0.0900
     41 H41         1.8827    4.0783   53.6650 H       1  ZINC000182378855    0.1000
     42 H42         0.7894    5.2146   54.5106 H       1  ZINC000182378855    0.0700
     43 H43        -0.7884    2.1115   51.6615 H       1  ZINC000182378855    0.1500
     44 H44        -2.4257    0.6391   50.5601 H       1  ZINC000182378855    0.1500
     45 H45        -3.9067    4.8471   52.6517 H       1  ZINC000182378855    0.1500
     46 H46         0.0506    6.8254   47.0652 H       1  ZINC000182378855    0.1400
     47 H47        -0.0734    5.7906   44.8377 H       1  ZINC000182378855    0.1700
@<TRIPOS>BOND
     1     1     2    1
     2     1    30    1
     3     1    31    1
     4     1    32    1
     5     2     3    1
     6     3     4    1
     7     3    33    1
     8     3    34    1
     9     4     5    1
    10     4    35    1
    11     4    36    1
    12     5     6    1
    13     6    29   ar
    14     6     7   ar
    15     7     8   ar
    16     7    37    1
    17     8     9    1
    18     8    27   ar
    19     9    10    2
    20     9    11   am
    21    11    12    1
    22    11    38    1
    23    12    13    1
    24    12    17    1
    25    12    14    1
    26    14    15    1
    27    14    39    1
    28    14    40    1
    29    15    16    1
    30    15    41    1
    31    15    42    1
    32    16    17    1
    33    17    18    1
    34    17    19    1
    35    19    26   ar
    36    19    20   ar
    37    20    21   ar
    38    20    43    1
    39    21    22   ar
    40    21    44    1
    41    22    23    1
    42    22    24   ar
    43    24    25    1
    44    24    26   ar
    45    26    45    1
    46    27    28   ar
    47    27    46    1
    48    28    29   ar
    49    28    47    1
@<TRIPOS>SUBSTRUCTURE
     1 ZINC000182378855        1 TEMP              0 ****  ****    0 ROOT


##########                                Name:    ZINC000467104849
##########                DOCK_Rotatable_Bonds:                   6
##########                         Heavy_Atoms:                  29
##########                    Molecular_Weight:             421.896
##########                DOCK_Rotatable_Bonds:                   6
##########                       Formal_Charge:           0.0200002
##########                     HBond_Acceptors:                   7
##########                        HBond_Donors:                   0
##########                         Heavy_Atoms:                  29
##########                          Grid_Score:          -27.866383
##########                     Grid_vdw_energy:          -27.179539
##########                      Grid_es_energy:           -0.686844
##########           Internal_energy_repulsive:           67.292099

@<TRIPOS>MOLECULE
ZINC000467104849
 54 56 1 0 0
SMALL
USER_CHARGES


@<TRIPOS>ATOM
      1 C1         -8.8764    1.1994   57.5073 C.3     1  ZINC000467104849    0.0200
      2 O2         -7.7384    2.0120   57.2123 O.3     1  ZINC000467104849   -0.3000
      3 C3         -7.6631    2.5377   55.9604 C.ar    1  ZINC000467104849    0.1000
      4 C4         -8.6647    2.2817   55.0385 C.ar    1  ZINC000467104849   -0.1700
      5 C5         -8.5868    2.8174   53.7660 C.ar    1  ZINC000467104849   -0.1200
      6 C6         -7.5106    3.6083   53.4106 C.ar    1  ZINC000467104849   -0.0800
      7 C7         -7.4303    4.1892   52.0224 C.3     1  ZINC000467104849   -0.0400
      8 C8         -8.2047    3.2966   51.0505 C.3     1  ZINC000467104849   -0.1300
      9 C9         -8.0389    5.5929   52.0209 C.3     1  ZINC000467104849   -0.1600
     10 C10        -5.9879    4.2665   51.5929 C.2     1  ZINC000467104849    0.5300
     11 O11        -5.5519    5.2919   51.1139 O.2     1  ZINC000467104849   -0.5300
     12 N12        -5.1824    3.1961   51.7410 N.am    1  ZINC000467104849   -0.6100
     13 C13        -5.6887    1.9414   52.3195 C.3     1  ZINC000467104849    0.0600
     14 C14        -5.3062    0.7887   51.3842 C.3     1  ZINC000467104849    0.0500
     15 O15        -3.9027    0.8443   51.1182 O.3     1  ZINC000467104849   -0.3700
     16 C16        -3.4818    2.0311   50.4413 C.3     1  ZINC000467104849    0.1300
     17 H17        -4.0270    2.1276   49.5024 H       1  ZINC000467104849    0.0800
     18 C18        -2.0036    1.9524   50.1593 C.ar    1  ZINC000467104849   -0.0900
     19 C19        -1.0949    2.1082   51.1891 C.ar    1  ZINC000467104849   -0.0500
     20 C20         0.2615    2.0363   50.9323 C.ar    1  ZINC000467104849   -0.1400
     21 C21         0.7103    1.8078   49.6431 C.ar    1  ZINC000467104849    0.1200
     22 F22         2.0357    1.7369   49.3912 F       1  ZINC000467104849   -0.1200
     23 C23        -0.2013    1.6513   48.6110 C.ar    1  ZINC000467104849   -0.0800
     24 Cl24        0.3591    1.3645   46.9932 Cl      1  ZINC000467104849   -0.0400
     25 C25        -1.5576    1.7189   48.8717 C.ar    1  ZINC000467104849   -0.0700
     26 C26        -3.7723    3.2456   51.3233 C.3     1  ZINC000467104849    0.0900
     27 C27        -6.5074    3.8683   54.3262 C.ar    1  ZINC000467104849   -0.1600
     28 C28        -6.5820    3.3390   55.6043 C.ar    1  ZINC000467104849    0.1100
     29 O29        -5.5963    3.5937   56.5059 O.3     1  ZINC000467104849   -0.3000
     30 C30        -4.5256    4.4367   56.0759 C.3     1  ZINC000467104849    0.0200
     31 H31        -8.8126    0.8447   58.5360 H       1  ZINC000467104849    0.1000
     32 H32        -9.7854    1.7877   57.3814 H       1  ZINC000467104849    0.0600
     33 H33        -8.8991    0.3462   56.8294 H       1  ZINC000467104849    0.0600
     34 H34        -9.5064    1.6633   55.3134 H       1  ZINC000467104849    0.1400
     35 H35        -9.3684    2.6169   53.0482 H       1  ZINC000467104849    0.1300
     36 H36        -9.2636    3.3112   51.3087 H       1  ZINC000467104849    0.0700
     37 H37        -8.0735    3.6670   50.0337 H       1  ZINC000467104849    0.0700
     38 H38        -7.8287    2.2756   51.1165 H       1  ZINC000467104849    0.0700
     39 H39        -7.4344    6.2517   52.6443 H       1  ZINC000467104849    0.0700
     40 H40        -8.0621    5.9778   51.0014 H       1  ZINC000467104849    0.0700
     41 H41        -9.0538    5.5493   52.4160 H       1  ZINC000467104849    0.0700
     42 H42        -5.2406    1.7823   53.3004 H       1  ZINC000467104849    0.0800
     43 H43        -6.7733    1.9924   52.4148 H       1  ZINC000467104849    0.1100
     44 H44        -5.5494   -0.1616   51.8593 H       1  ZINC000467104849    0.1100
     45 H45        -5.8580    0.8806   50.4486 H       1  ZINC000467104849    0.0600
     46 H46        -1.4449    2.2865   52.1951 H       1  ZINC000467104849    0.1500
     47 H47         0.9709    2.1588   51.7374 H       1  ZINC000467104849    0.1500
     48 H48        -2.2686    1.5966   48.0679 H       1  ZINC000467104849    0.1500
     49 H49        -3.5864    4.1607   50.7608 H       1  ZINC000467104849    0.1100
     50 H50        -3.1327    3.2201   52.2055 H       1  ZINC000467104849    0.0800
     51 H51        -5.6675    4.4867   54.0461 H       1  ZINC000467104849    0.1400
     52 H52        -4.0282    3.9833   55.2183 H       1  ZINC000467104849    0.0600
     53 H53        -4.9222    5.4116   55.7923 H       1  ZINC000467104849    0.0600
     54 H54        -3.8097    4.5581   56.8888 H       1  ZINC000467104849    0.1000
@<TRIPOS>BOND
     1     1     2    1
     2     1    31    1
     3     1    32    1
     4     1    33    1
     5     2     3    1
     6     3    28   ar
     7     3     4   ar
     8     4     5   ar
     9     4    34    1
    10     5     6   ar
    11     5    35    1
    12     6     7    1
    13     6    27   ar
    14     7     8    1
    15     7     9    1
    16     7    10    1
    17     8    36    1
    18     8    37    1
    19     8    38    1
    20     9    39    1
    21     9    40    1
    22     9    41    1
    23    10    11    2
    24    10    12   am
    25    12    26    1
    26    12    13    1
    27    13    14    1
    28    13    42    1
    29    13    43    1
    30    14    15    1
    31    14    44    1
    32    14    45    1
    33    15    16    1
    34    16    17    1
    35    16    18    1
    36    16    26    1
    37    18    25   ar
    38    18    19   ar
    39    19    20   ar
    40    19    46    1
    41    20    21   ar
    42    20    47    1
    43    21    22    1
    44    21    23   ar
    45    23    24    1
    46    23    25   ar
    47    25    48    1
    48    26    49    1
    49    26    50    1
    50    27    28   ar
    51    27    51    1
    52    28    29    1
    53    29    30    1
    54    30    52    1
    55    30    53    1
    56    30    54    1
@<TRIPOS>SUBSTRUCTURE
     1 ZINC000467104849        1 TEMP              0 ****  ****    0 ROOT


##########                                Name:    ZINC000504638019
##########                DOCK_Rotatable_Bonds:                   8
##########                         Heavy_Atoms:                  24
##########                    Molecular_Weight:             328.454
##########                DOCK_Rotatable_Bonds:                   8
##########                       Formal_Charge:        -1.49012e-08
##########                     HBond_Acceptors:                   4
##########                        HBond_Donors:                   1
##########                         Heavy_Atoms:                  24
##########                          Grid_Score:          -27.859976
##########                     Grid_vdw_energy:          -28.655956
##########                      Grid_es_energy:            0.795981
##########           Internal_energy_repulsive:           13.622513

@<TRIPOS>MOLECULE
ZINC000504638019
 52 53 1 0 0
SMALL
USER_CHARGES


@<TRIPOS>ATOM
      1 C1         -6.5808    2.3286   49.7347 C.3     1  ZINC000504638019   -0.1200
      2 C2         -5.3137    2.6444   50.4870 C.ar    1  ZINC000504638019   -0.0900
      3 C3         -4.2340    1.7843   50.4139 C.ar    1  ZINC000504638019   -0.1200
      4 C4         -3.0717    2.0738   51.1039 C.ar    1  ZINC000504638019   -0.1100
      5 C5         -2.9890    3.2238   51.8667 C.ar    1  ZINC000504638019   -0.0900
      6 C6         -1.7221    3.5392   52.6192 C.3     1  ZINC000504638019   -0.0600
      7 H7         -1.0555    2.6775   52.5860 H       1  ZINC000504638019    0.0900
      8 C8         -1.0321    4.7430   51.9743 C.3     1  ZINC000504638019   -0.1500
      9 C9         -2.0615    3.8656   54.0750 C.3     1  ZINC000504638019    0.1300
     10 N10        -1.0943    3.2123   54.9603 N.am    1  ZINC000504638019   -0.7000
     11 C11        -1.4481    2.8815   56.2180 C.2     1  ZINC000504638019    0.5100
     12 O12        -2.5683    3.1237   56.6167 O.2     1  ZINC000504638019   -0.5100
     13 C13        -0.4608    2.2167   57.1217 C.2     1  ZINC000504638019    0.5100
     14 O14        -0.4741    1.0103   57.2521 O.2     1  ZINC000504638019   -0.5200
     15 N15         0.4445    2.9569   57.7918 N.am    1  ZINC000504638019   -0.5800
     16 C16         0.4607    4.4133   57.6343 C.3     1  ZINC000504638019    0.0600
     17 C17         1.4123    2.3051   58.6776 C.3     1  ZINC000504638019    0.1100
     18 C18         0.6788    1.6961   59.8742 C.3     1  ZINC000504638019   -0.1000
     19 H19        -0.1004    1.0205   59.5212 H       1  ZINC000504638019    0.0800
     20 C20         0.0515    2.8104   60.7146 C.3     1  ZINC000504638019   -0.0800
     21 C21        -0.4397    2.2586   62.0209 C.2     1  ZINC000504638019   -0.1500
     22 C22        -0.0711    1.1187   62.5111 C.2     1  ZINC000504638019   -0.1600
     23 C23         0.8910    0.1850   61.8369 C.3     1  ZINC000504638019   -0.0900
     24 C24         1.6734    0.9233   60.7499 C.3     1  ZINC000504638019   -0.1100
     25 C25        -4.0682    4.0846   51.9385 C.ar    1  ZINC000504638019   -0.1100
     26 C26        -5.2292    3.7969   51.2455 C.ar    1  ZINC000504638019   -0.1200
     27 H27        -6.5288    2.7637   48.7367 H       1  ZINC000504638019    0.0700
     28 H28        -6.6959    1.2476   49.6543 H       1  ZINC000504638019    0.0700
     29 H29        -7.4342    2.7460   50.2691 H       1  ZINC000504638019    0.0700
     30 H30        -4.2986    0.8859   49.8181 H       1  ZINC000504638019    0.1200
     31 H31        -2.2284    1.4015   51.0474 H       1  ZINC000504638019    0.1200
     32 H32        -0.1158    4.9712   52.5187 H       1  ZINC000504638019    0.0600
     33 H33        -0.7902    4.5105   50.9372 H       1  ZINC000504638019    0.0600
     34 H34        -1.6986    5.6047   52.0076 H       1  ZINC000504638019    0.0600
     35 H35        -2.0201    4.9445   54.2247 H       1  ZINC000504638019    0.0800
     36 H36        -3.0646    3.5053   54.3037 H       1  ZINC000504638019    0.0800
     37 H37        -0.1992    3.0175   54.6411 H       1  ZINC000504638019    0.4100
     38 H38        -0.2711    4.8598   58.3076 H       1  ZINC000504638019    0.0600
     39 H39         1.4538    4.7937   57.8733 H       1  ZINC000504638019    0.0700
     40 H40         0.2112    4.6703   56.6048 H       1  ZINC000504638019    0.1100
     41 H41         1.9324    1.5183   58.1314 H       1  ZINC000504638019    0.0900
     42 H42         2.1348    3.0410   59.0305 H       1  ZINC000504638019    0.0900
     43 H43         0.7972    3.5821   60.9059 H       1  ZINC000504638019    0.0800
     44 H44        -0.7853    3.2468   60.1693 H       1  ZINC000504638019    0.0600
     45 H45        -1.1442    2.8495   62.5874 H       1  ZINC000504638019    0.1000
     46 H46        -0.4813    0.8211   63.4649 H       1  ZINC000504638019    0.1000
     47 H47         1.5860   -0.2134   62.5761 H       1  ZINC000504638019    0.0700
     48 H48         0.3384   -0.6377   61.3834 H       1  ZINC000504638019    0.0700
     49 H49         2.2230    0.2046   60.1419 H       1  ZINC000504638019    0.0700
     50 H50         2.3684    1.6250   61.2111 H       1  ZINC000504638019    0.0700
     51 H51        -4.0035    4.9833   52.5341 H       1  ZINC000504638019    0.1200
     52 H52        -6.0723    4.4695   51.3016 H       1  ZINC000504638019    0.1200
@<TRIPOS>BOND
     1     1     2    1
     2     1    27    1
     3     1    28    1
     4     1    29    1
     5     2    26   ar
     6     2     3   ar
     7     3     4   ar
     8     3    30    1
     9     4     5   ar
    10     4    31    1
    11     5     6    1
    12     5    25   ar
    13     6     7    1
    14     6     8    1
    15     6     9    1
    16     8    32    1
    17     8    33    1
    18     8    34    1
    19     9    10    1
    20     9    35    1
    21     9    36    1
    22    10    11   am
    23    10    37    1
    24    11    12    2
    25    11    13    1
    26    13    14    2
    27    13    15   am
    28    15    16    1
    29    15    17    1
    30    16    38    1
    31    16    39    1
    32    16    40    1
    33    17    18    1
    34    17    41    1
    35    17    42    1
    36    18    19    1
    37    18    24    1
    38    18    20    1
    39    20    21    1
    40    20    43    1
    41    20    44    1
    42    21    22    2
    43    21    45    1
    44    22    23    1
    45    22    46    1
    46    23    24    1
    47    23    47    1
    48    23    48    1
    49    24    49    1
    50    24    50    1
    51    25    26   ar
    52    25    51    1
    53    26    52    1
@<TRIPOS>SUBSTRUCTURE
     1 ZINC000504638019        1 TEMP              0 ****  ****    0 ROOT


##########                                Name:    ZINC000186105981
##########                DOCK_Rotatable_Bonds:                   6
##########                         Heavy_Atoms:                  26
##########                    Molecular_Weight:             396.873
##########                DOCK_Rotatable_Bonds:                   6
##########                       Formal_Charge:          -0.0400003
##########                     HBond_Acceptors:                   9
##########                        HBond_Donors:                   1
##########                         Heavy_Atoms:                  26
##########                          Grid_Score:          -27.834272
##########                     Grid_vdw_energy:          -25.962601
##########                      Grid_es_energy:           -1.871672
##########           Internal_energy_repulsive:           15.261676

@<TRIPOS>MOLECULE
ZINC000186105981
 44 46 1 0 0
SMALL
USER_CHARGES


@<TRIPOS>ATOM
      1 C1         -8.9121    3.2850   53.8253 C.3     1  ZINC000186105981   -0.1400
      2 C2         -7.7343    2.7048   53.0398 C.3     1  ZINC000186105981   -0.1100
      3 C3         -8.2406    2.1186   51.7203 C.3     1  ZINC000186105981   -0.1600
      4 C4         -6.7197    3.8126   52.7496 C.3     1  ZINC000186105981    0.1600
      5 H5         -7.2322    4.6693   52.3122 H       1  ZINC000186105981    0.1200
      6 C6         -5.6809    3.3021   51.7844 C.2     1  ZINC000186105981    0.4900
      7 O7         -5.8490    3.4283   50.5899 O.2     1  ZINC000186105981   -0.4300
      8 N8         -4.5652    2.7054   52.2485 N.am    1  ZINC000186105981   -0.6300
      9 C9         -3.6073    2.2347   51.3585 C.2     1  ZINC000186105981    0.2400
     10 N10        -3.6732    1.1275   50.6753 N.2     1  ZINC000186105981   -0.2600
     11 N11        -2.7099    0.8528   49.9091 N.2     1  ZINC000186105981   -0.2000
     12 C12        -1.7182    1.6972   49.8565 C.2     1  ZINC000186105981    0.0300
     13 C13        -0.5027    1.5619   49.0265 C.ar    1  ZINC000186105981   -0.0500
     14 C14        -0.6030    1.5380   47.6330 C.ar    1  ZINC000186105981    0.1300
     15 F15        -1.8124    1.6386   47.0391 F       1  ZINC000186105981   -0.1200
     16 C16         0.5384    1.4117   46.8638 C.ar    1  ZINC000186105981   -0.1400
     17 C17         1.7770    1.3092   47.4705 C.ar    1  ZINC000186105981   -0.0600
     18 C18         1.8832    1.3317   48.8499 C.ar    1  ZINC000186105981   -0.1200
     19 C19         0.7525    1.4632   49.6312 C.ar    1  ZINC000186105981    0.0200
     20 Cl20        0.8892    1.4917   51.3616 Cl      1  ZINC000186105981   -0.0100
     21 S21        -2.0890    3.0343   50.9468 S.3     1  ZINC000186105981    0.1200
     22 N22        -6.0689    4.2179   53.9980 N.am    1  ZINC000186105981   -0.6100
     23 C23        -5.7689    3.3071   55.1091 C.3     1  ZINC000186105981    0.1000
     24 C24        -4.7279    4.0466   55.9786 C.3     1  ZINC000186105981   -0.1300
     25 C25        -5.0301    5.5254   55.6428 C.3     1  ZINC000186105981   -0.1600
     26 C26        -5.6645    5.4705   54.2706 C.2     1  ZINC000186105981    0.5200
     27 O27        -5.7959    6.4199   53.5275 O.2     1  ZINC000186105981   -0.5000
     28 H28        -9.6349    2.4958   54.0320 H       1  ZINC000186105981    0.0600
     29 H29        -8.5514    3.7027   54.7653 H       1  ZINC000186105981    0.0600
     30 H30        -9.3890    4.0699   53.2383 H       1  ZINC000186105981    0.0600
     31 H31        -7.2574    1.9199   53.6268 H       1  ZINC000186105981    0.0900
     32 H32        -8.6332    2.9195   51.0938 H       1  ZINC000186105981    0.0600
     33 H33        -7.4186    1.6230   51.2038 H       1  ZINC000186105981    0.0600
     34 H34        -9.0307    1.3957   51.9233 H       1  ZINC000186105981    0.0700
     35 H35        -4.4308    2.6044   53.2039 H       1  ZINC000186105981    0.4200
     36 H36         0.4629    1.3927   45.7866 H       1  ZINC000186105981    0.1500
     37 H37         2.6656    1.2108   46.8646 H       1  ZINC000186105981    0.1500
     38 H38         2.8539    1.2508   49.3166 H       1  ZINC000186105981    0.1500
     39 H39        -6.6709    3.1084   55.6879 H       1  ZINC000186105981    0.0700
     40 H40        -5.3500    2.3749   54.7301 H       1  ZINC000186105981    0.0800
     41 H41        -4.8908    3.8459   57.0374 H       1  ZINC000186105981    0.0900
     42 H42        -3.7131    3.7792   55.6840 H       1  ZINC000186105981    0.0800
     43 H43        -5.7225    5.9481   56.3708 H       1  ZINC000186105981    0.1100
     44 H44        -4.1077    6.1055   55.6107 H       1  ZINC000186105981    0.1000
@<TRIPOS>BOND
     1     1     2    1
     2     1    28    1
     3     1    29    1
     4     1    30    1
     5     2     3    1
     6     2     4    1
     7     2    31    1
     8     3    32    1
     9     3    33    1
    10     3    34    1
    11     4     5    1
    12     4     6    1
    13     4    22    1
    14     6     7    2
    15     6     8   am
    16     8     9    1
    17     8    35    1
    18     9    21    1
    19     9    10    2
    20    10    11    1
    21    11    12    2
    22    12    13    1
    23    12    21    1
    24    13    19   ar
    25    13    14   ar
    26    14    15    1
    27    14    16   ar
    28    16    17   ar
    29    16    36    1
    30    17    18   ar
    31    17    37    1
    32    18    19   ar
    33    18    38    1
    34    19    20    1
    35    22    26   am
    36    22    23    1
    37    23    24    1
    38    23    39    1
    39    23    40    1
    40    24    25    1
    41    24    41    1
    42    24    42    1
    43    25    26    1
    44    25    43    1
    45    25    44    1
    46    26    27    2
@<TRIPOS>SUBSTRUCTURE
     1 ZINC000186105981        1 TEMP              0 ****  ****    0 ROOT


##########                                Name:    ZINC000863208514
##########                DOCK_Rotatable_Bonds:                   6
##########                         Heavy_Atoms:                  19
##########                    Molecular_Weight:             368.657
##########                DOCK_Rotatable_Bonds:                   6
##########                       Formal_Charge:           0.0100005
##########                     HBond_Acceptors:                   7
##########                        HBond_Donors:                   2
##########                         Heavy_Atoms:                  19
##########                          Grid_Score:          -27.802984
##########                     Grid_vdw_energy:          -28.286753
##########                      Grid_es_energy:            0.483768
##########           Internal_energy_repulsive:           10.037144

@<TRIPOS>MOLECULE
ZINC000863208514
 31 31 1 0 0
SMALL
USER_CHARGES


@<TRIPOS>ATOM
      1 C1          0.0167    5.4549   45.3215 C.3     1  ZINC000863208514    0.0900
      2 N2         -0.4179    4.0733   45.5416 N.am    1  ZINC000863208514   -0.6100
      3 C3         -0.4861    3.1387   44.4155 C.3     1  ZINC000863208514    0.0700
      4 C4         -0.7552    3.6622   46.7801 C.2     1  ZINC000863208514    0.5100
      5 O5         -0.7002    4.4364   47.7120 O.2     1  ZINC000863208514   -0.5400
      6 C6         -1.2006    2.2405   47.0067 C.3     1  ZINC000863208514    0.1100
      7 N7         -1.7272    2.1048   48.3671 N.am    1  ZINC000863208514   -0.6600
      8 C8         -0.9273    1.6649   49.3586 C.2     1  ZINC000863208514    0.5600
      9 S9          0.7036    1.2628   49.0280 S.2     1  ZINC000863208514   -0.6000
     10 N10        -1.4114    1.5415   50.6104 N.am    1  ZINC000863208514   -0.6300
     11 C11        -2.7457    1.8704   50.8808 C.ar    1  ZINC000863208514    0.1200
     12 C12        -3.7596    0.9780   50.5633 C.ar    1  ZINC000863208514   -0.0300
     13 C13        -5.0762    1.3049   50.8317 C.ar    1  ZINC000863208514   -0.0200
     14 Cl14       -6.3450    0.1884   50.4352 Cl      1  ZINC000863208514   -0.0300
     15 C15        -5.3836    2.5212   51.4166 C.ar    1  ZINC000863208514   -0.0600
     16 Br16       -7.1852    2.9643   51.7819 Br      1  ZINC000863208514   -0.0100
     17 C17        -4.3749    3.4135   51.7350 C.ar    1  ZINC000863208514   -0.1100
     18 C18        -3.0564    3.0899   51.4732 C.ar    1  ZINC000863208514    0.1100
     19 F19        -2.0717    3.9610   51.7841 F       1  ZINC000863208514   -0.1200
     20 H20         0.2454    5.6001   44.2657 H       1  ZINC000863208514    0.0800
     21 H21        -0.7793    6.1379   45.6180 H       1  ZINC000863208514    0.0700
     22 H22         0.9076    5.6549   45.9170 H       1  ZINC000863208514    0.0700
     23 H23         0.4709    2.6280   44.3089 H       1  ZINC000863208514    0.0700
     24 H24        -1.2709    2.4050   44.5993 H       1  ZINC000863208514    0.0800
     25 H25        -0.7089    3.6877   43.5007 H       1  ZINC000863208514    0.0800
     26 H26        -1.9795    1.9849   46.2884 H       1  ZINC000863208514    0.1200
     27 H27        -0.3520    1.5688   46.8770 H       1  ZINC000863208514    0.1200
     28 H28        -2.6517    2.3314   48.5541 H       1  ZINC000863208514    0.4100
     29 H29        -0.8357    1.2249   51.3240 H       1  ZINC000863208514    0.4200
     30 H30        -3.5208    0.0289   50.1066 H       1  ZINC000863208514    0.1800
     31 H31        -4.6174    4.3619   52.1912 H       1  ZINC000863208514    0.1600
@<TRIPOS>BOND
     1     1     2    1
     2     1    20    1
     3     1    21    1
     4     1    22    1
     5     2     3    1
     6     2     4   am
     7     3    23    1
     8     3    24    1
     9     3    25    1
    10     4     5    2
    11     4     6    1
    12     6     7    1
    13     6    26    1
    14     6    27    1
    15     7     8   am
    16     7    28    1
    17     8     9    2
    18     8    10   am
    19    10    11    1
    20    10    29    1
    21    11    18   ar
    22    11    12   ar
    23    12    13   ar
    24    12    30    1
    25    13    14    1
    26    13    15   ar
    27    15    16    1
    28    15    17   ar
    29    17    18   ar
    30    17    31    1
    31    18    19    1
@<TRIPOS>SUBSTRUCTURE
     1 ZINC000863208514        1 TEMP              0 ****  ****    0 ROOT


##########                                Name:    ZINC000647468483
##########                DOCK_Rotatable_Bonds:                   5
##########                         Heavy_Atoms:                  24
##########                    Molecular_Weight:             341.373
##########                DOCK_Rotatable_Bonds:                   5
##########                       Formal_Charge:           0.0300004
##########                     HBond_Acceptors:                   6
##########                        HBond_Donors:                   2
##########                         Heavy_Atoms:                  24
##########                          Grid_Score:          -27.779175
##########                     Grid_vdw_energy:          -24.637146
##########                      Grid_es_energy:           -3.142028
##########           Internal_energy_repulsive:           18.879854

@<TRIPOS>MOLECULE
ZINC000647468483
 46 48 1 0 0
SMALL
USER_CHARGES


@<TRIPOS>ATOM
      1 O1         -7.7662    0.0572   51.4917 O.co2   1  ZINC000647468483   -0.6800
      2 C2         -7.4077    1.2205   51.5603 C.2     1  ZINC000647468483    0.5000
      3 O3         -8.0230    2.0080   52.2588 O.co2   1  ZINC000647468483   -0.6900
      4 C4         -6.1999    1.6836   50.7868 C.3     1  ZINC000647468483   -0.1500
      5 H5         -6.4943    2.0813   49.8156 H       1  ZINC000647468483    0.0800
      6 C6         -5.1789    0.5307   50.6214 C.3     1  ZINC000647468483   -0.1100
      7 C7         -3.8313    1.2479   50.3995 C.3     1  ZINC000647468483   -0.1400
      8 C8         -3.9719    2.6494   51.0190 C.3     1  ZINC000647468483    0.0100
      9 H9         -3.8323    3.4121   50.2528 H       1  ZINC000647468483    0.1400
     10 N10        -2.9838    2.8271   52.0913 N.4     1  ZINC000647468483   -0.5000
     11 H11        -3.2779    2.3131   52.9083 H       1  ZINC000647468483    0.4200
     12 H12        -2.0868    2.4834   51.7824 H       1  ZINC000647468483    0.4300
     13 C13        -2.8734    4.2538   52.4238 C.3     1  ZINC000647468483    0.0200
     14 H14        -3.2980    4.8577   51.6220 H       1  ZINC000647468483    0.1500
     15 C15        -3.6040    4.5448   53.7464 C.3     1  ZINC000647468483   -0.1400
     16 C16        -2.5435    5.0896   54.7252 C.3     1  ZINC000647468483   -0.1300
     17 C17        -1.2033    4.5371   54.1794 C.3     1  ZINC000647468483   -0.1300
     18 C18        -1.3941    4.6320   52.6439 C.3     1  ZINC000647468483   -0.0600
     19 H19        -1.2041    5.6482   52.2981 H       1  ZINC000647468483    0.1300
     20 C20        -0.4864    3.6577   51.9383 C.ar    1  ZINC000647468483   -0.1200
     21 C21         0.5610    3.0697   52.6219 C.ar    1  ZINC000647468483   -0.0700
     22 C22         1.3938    2.1758   51.9746 C.ar    1  ZINC000647468483   -0.1000
     23 C23         1.1786    1.8700   50.6440 C.ar    1  ZINC000647468483   -0.0600
     24 C24         0.1303    2.4576   49.9605 C.ar    1  ZINC000647468483   -0.1600
     25 C25        -0.1041    2.1244   48.5095 C.3     1  ZINC000647468483    0.5000
     26 F26         1.1196    1.8453   47.8916 F       1  ZINC000647468483   -0.1700
     27 F27        -0.9393    1.0059   48.4169 F       1  ZINC000647468483   -0.1700
     28 F28        -0.7103    3.2130   47.8732 F       1  ZINC000647468483   -0.1700
     29 C29        -0.7048    3.3479   50.6088 C.ar    1  ZINC000647468483   -0.1100
     30 C30        -5.4030    2.7387   51.5934 C.3     1  ZINC000647468483   -0.1200
     31 H31        -5.1425   -0.0791   51.5241 H       1  ZINC000647468483    0.0800
     32 H32        -5.4321   -0.0818   49.7560 H       1  ZINC000647468483    0.0800
     33 H33        -3.0303    0.6993   50.8951 H       1  ZINC000647468483    0.0700
     34 H34        -3.6232    1.3303   49.3327 H       1  ZINC000647468483    0.1000
     35 H35        -4.3827    5.2906   53.5865 H       1  ZINC000647468483    0.1000
     36 H36        -4.0406    3.6274   54.1415 H       1  ZINC000647468483    0.0900
     37 H37        -2.5391    6.1795   54.7152 H       1  ZINC000647468483    0.0800
     38 H38        -2.7274    4.7171   55.7330 H       1  ZINC000647468483    0.0900
     39 H39        -0.3686    5.1582   54.5039 H       1  ZINC000647468483    0.0900
     40 H40        -1.0583    3.5015   54.4874 H       1  ZINC000647468483    0.0800
     41 H41         0.7292    3.3087   53.6617 H       1  ZINC000647468483    0.1400
     42 H42         2.2127    1.7169   52.5086 H       1  ZINC000647468483    0.1500
     43 H43         1.8296    1.1724   50.1382 H       1  ZINC000647468483    0.1500
     44 H44        -1.5237    3.8069   50.0748 H       1  ZINC000647468483    0.1400
     45 H45        -5.8150    3.7358   51.4380 H       1  ZINC000647468483    0.0900
     46 H46        -5.4050    2.4851   52.6536 H       1  ZINC000647468483    0.1000
@<TRIPOS>BOND
     1     1     2   ar
     2     2     3   ar
     3     2     4    1
     4     4     5    1
     5     4    30    1
     6     4     6    1
     7     6     7    1
     8     6    31    1
     9     6    32    1
    10     7     8    1
    11     7    33    1
    12     7    34    1
    13     8     9    1
    14     8    10    1
    15     8    30    1
    16    10    11    1
    17    10    12    1
    18    10    13    1
    19    13    14    1
    20    13    18    1
    21    13    15    1
    22    15    16    1
    23    15    35    1
    24    15    36    1
    25    16    17    1
    26    16    37    1
    27    16    38    1
    28    17    18    1
    29    17    39    1
    30    17    40    1
    31    18    19    1
    32    18    20    1
    33    20    29   ar
    34    20    21   ar
    35    21    22   ar
    36    21    41    1
    37    22    23   ar
    38    22    42    1
    39    23    24   ar
    40    23    43    1
    41    24    25    1
    42    24    29   ar
    43    25    26    1
    44    25    27    1
    45    25    28    1
    46    29    44    1
    47    30    45    1
    48    30    46    1
@<TRIPOS>SUBSTRUCTURE
     1 ZINC000647468483        1 TEMP              0 ****  ****    0 ROOT


##########                                Name:    ZINC000269287897
##########                DOCK_Rotatable_Bonds:                   8
##########                         Heavy_Atoms:                  23
##########                    Molecular_Weight:             385.301
##########                DOCK_Rotatable_Bonds:                   8
##########                       Formal_Charge:           0.0300002
##########                     HBond_Acceptors:                   5
##########                        HBond_Donors:                   1
##########                         Heavy_Atoms:                  23
##########                          Grid_Score:          -27.769424
##########                     Grid_vdw_energy:          -27.531490
##########                      Grid_es_energy:           -0.237935
##########           Internal_energy_repulsive:            8.859270

@<TRIPOS>MOLECULE
ZINC000269287897
 48 49 1 0 0
SMALL
USER_CHARGES


@<TRIPOS>ATOM
      1 C1        -10.1017   -2.4144   57.5235 C.3     1  ZINC000269287897    0.0300
      2 O2         -9.5752   -1.3464   56.7333 O.3     1  ZINC000269287897   -0.3800
      3 C3        -10.5693   -0.4544   56.2255 C.3     1  ZINC000269287897    0.0600
      4 C4         -9.8879    0.7264   55.5308 C.3     1  ZINC000269287897    0.0600
      5 O5        -10.8788    1.6594   55.0955 O.3     1  ZINC000269287897   -0.3800
      6 C6        -10.3465    2.9119   54.6601 C.3     1  ZINC000269287897    0.0700
      7 C7         -9.7047    2.7419   53.2817 C.3     1  ZINC000269287897   -0.1000
      8 H8         -9.9646    1.7760   52.8485 H       1  ZINC000269287897    0.1000
      9 C9        -10.1069    3.9028   52.3339 C.3     1  ZINC000269287897   -0.1200
     10 C10        -8.9253    3.9652   51.3431 C.3     1  ZINC000269287897    0.1000
     11 N11        -7.7688    3.3421   52.0032 N.am    1  ZINC000269287897   -0.6300
     12 C12        -6.5459    3.1827   51.4596 C.2     1  ZINC000269287897    0.7300
     13 O13        -6.3280    3.5718   50.3284 O.2     1  ZINC000269287897   -0.5600
     14 N14        -5.5645    2.5922   52.1698 N.am    1  ZINC000269287897   -0.6900
     15 C15        -4.2943    2.4267   51.6052 C.ar    1  ZINC000269287897    0.1800
     16 C16        -3.3056    3.3755   51.8266 C.ar    1  ZINC000269287897   -0.0600
     17 C17        -3.5983    4.5857   52.6757 C.3     1  ZINC000269287897   -0.1000
     18 C18        -2.0527    3.2092   51.2685 C.ar    1  ZINC000269287897   -0.0900
     19 C19        -1.7828    2.0992   50.4898 C.ar    1  ZINC000269287897   -0.0800
     20 C20        -0.4150    1.9213   49.8827 C.3     1  ZINC000269287897   -0.1100
     21 C21        -2.7651    1.1513   50.2672 C.ar    1  ZINC000269287897   -0.0900
     22 C22        -4.0186    1.3092   50.8264 C.ar    1  ZINC000269287897   -0.1000
     23 Br23       -5.3611    0.0127   50.5222 Br      1  ZINC000269287897   -0.0500
     24 C24        -8.1679    2.9204   53.3588 C.3     1  ZINC000269287897    0.1400
     25 H25       -10.6336   -2.0035   58.3816 H       1  ZINC000269287897    0.0400
     26 H26       -10.7886   -3.0081   56.9204 H       1  ZINC000269287897    0.0400
     27 H27        -9.2844   -3.0462   57.8711 H       1  ZINC000269287897    0.0900
     28 H28       -11.1997   -0.9822   55.5100 H       1  ZINC000269287897    0.0600
     29 H29       -11.1824   -0.0872   57.0485 H       1  ZINC000269287897    0.0600
     30 H30        -9.2093    1.2164   56.2290 H       1  ZINC000269287897    0.0700
     31 H31        -9.3252    0.3658   54.6698 H       1  ZINC000269287897    0.0600
     32 H32       -11.1495    3.6465   54.5989 H       1  ZINC000269287897    0.0600
     33 H33        -9.5945    3.2540   55.3712 H       1  ZINC000269287897    0.0500
     34 H34       -11.0356    3.6708   51.8125 H       1  ZINC000269287897    0.0900
     35 H35       -10.1968    4.8381   52.8864 H       1  ZINC000269287897    0.0800
     36 H36        -9.1739    3.4163   50.4347 H       1  ZINC000269287897    0.0700
     37 H37        -8.6990    5.0035   51.1011 H       1  ZINC000269287897    0.0700
     38 H38        -5.7383    2.2818   53.0722 H       1  ZINC000269287897    0.4100
     39 H39        -3.2347    4.4153   53.6890 H       1  ZINC000269287897    0.0900
     40 H40        -3.0982    5.4565   52.2518 H       1  ZINC000269287897    0.0600
     41 H41        -4.6739    4.7606   52.7003 H       1  ZINC000269287897    0.0600
     42 H42        -1.2834    3.9474   51.4404 H       1  ZINC000269287897    0.1300
     43 H43         0.2195    1.3655   50.5730 H       1  ZINC000269287897    0.0700
     44 H44        -0.5021    1.3708   48.9460 H       1  ZINC000269287897    0.0700
     45 H45         0.0268    2.8989   49.6899 H       1  ZINC000269287897    0.0700
     46 H46        -2.5511    0.2853   49.6584 H       1  ZINC000269287897    0.1400
     47 H47        -7.9122    3.6907   54.0864 H       1  ZINC000269287897    0.0700
     48 H48        -7.6880    1.9771   53.6194 H       1  ZINC000269287897    0.0900
@<TRIPOS>BOND
     1     1     2    1
     2     1    25    1
     3     1    26    1
     4     1    27    1
     5     2     3    1
     6     3     4    1
     7     3    28    1
     8     3    29    1
     9     4     5    1
    10     4    30    1
    11     4    31    1
    12     5     6    1
    13     6     7    1
    14     6    32    1
    15     6    33    1
    16     7     8    1
    17     7    24    1
    18     7     9    1
    19     9    10    1
    20     9    34    1
    21     9    35    1
    22    10    11    1
    23    10    36    1
    24    10    37    1
    25    11    12   am
    26    11    24    1
    27    12    13    2
    28    12    14   am
    29    14    15    1
    30    14    38    1
    31    15    22   ar
    32    15    16   ar
    33    16    17    1
    34    16    18   ar
    35    17    39    1
    36    17    40    1
    37    17    41    1
    38    18    19   ar
    39    18    42    1
    40    19    20    1
    41    19    21   ar
    42    20    43    1
    43    20    44    1
    44    20    45    1
    45    21    22   ar
    46    21    46    1
    47    22    23    1
    48    24    47    1
    49    24    48    1
@<TRIPOS>SUBSTRUCTURE
     1 ZINC000269287897        1 TEMP              0 ****  ****    0 ROOT


##########                                Name:    ZINC001362451754
##########                DOCK_Rotatable_Bonds:                   6
##########                         Heavy_Atoms:                  22
##########                    Molecular_Weight:             339.846
##########                DOCK_Rotatable_Bonds:                   6
##########                       Formal_Charge:         -0.00999987
##########                     HBond_Acceptors:                   7
##########                        HBond_Donors:                   1
##########                         Heavy_Atoms:                  22
##########                          Grid_Score:          -27.757582
##########                     Grid_vdw_energy:          -27.621401
##########                      Grid_es_energy:           -0.136181
##########           Internal_energy_repulsive:           17.445482

@<TRIPOS>MOLECULE
ZINC001362451754
 40 42 1 0 0
SMALL
USER_CHARGES


@<TRIPOS>ATOM
      1 C1         -5.3167    4.0412   51.6262 C.3     1  ZINC001362451754   -0.1700
      2 C2         -4.5906    2.7129   51.8488 C.3     1  ZINC001362451754    0.1400
      3 H3         -4.2779    2.6289   52.8895 H       1  ZINC001362451754    0.0800
      4 C4         -5.5224    1.5379   51.4842 C.3     1  ZINC001362451754   -0.1000
      5 H5         -5.3550    0.6919   52.1509 H       1  ZINC001362451754    0.1000
      6 C6         -6.9876    1.9770   51.5219 C.3     1  ZINC001362451754    0.0900
      7 O7         -7.8282    0.8563   51.2405 O.3     1  ZINC001362451754   -0.5700
      8 C8         -5.0910    1.1889   50.0354 C.3     1  ZINC001362451754   -0.1200
      9 C9         -3.5679    1.4541   50.0897 C.3     1  ZINC001362451754    0.0900
     10 N10        -3.4179    2.6301   50.9660 N.am    1  ZINC001362451754   -0.6100
     11 C11        -2.3803    3.4902   50.9556 C.2     1  ZINC001362451754    0.6100
     12 O12        -2.3619    4.4308   51.7276 O.2     1  ZINC001362451754   -0.5200
     13 C13        -1.2741    3.2928   50.0143 C.2     1  ZINC001362451754   -0.2500
     14 C14        -0.7199    4.2630   49.2277 C.2     1  ZINC001362451754   -0.0500
     15 C15         0.3016    3.8005   48.4324 C.2     1  ZINC001362451754   -0.1100
     16 C16         0.5829    2.4994   48.5691 C.2     1  ZINC001362451754   -0.2500
     17 C17         1.6614    1.7740   47.8066 C.3     1  ZINC001362451754    0.2100
     18 N18         1.1148    1.2762   46.5418 N.pl3   1  ZINC001362451754   -0.3700
     19 C19        -0.1429    0.8271   46.3419 C.2     1  ZINC001362451754    0.0700
     20 C20        -0.2491    0.4636   45.0421 C.2     1  ZINC001362451754   -0.1800
     21 Cl21       -1.6677   -0.1767   44.2730 Cl      1  ZINC001362451754   -0.0400
     22 C22         0.9886    0.6894   44.4297 C.2     1  ZINC001362451754    0.0700
     23 N23         1.8063    1.1764   45.3276 N.2     1  ZINC001362451754   -0.2700
     24 S24        -0.4481    1.7694   49.7160 S.3     1  ZINC001362451754    0.2300
     25 H25        -5.6199    4.1190   50.5821 H       1  ZINC001362451754    0.0600
     26 H26        -6.1989    4.0844   52.2650 H       1  ZINC001362451754    0.0700
     27 H27        -4.6486    4.8662   51.8730 H       1  ZINC001362451754    0.0700
     28 H28        -7.2240    2.3694   52.5110 H       1  ZINC001362451754    0.0500
     29 H29        -7.1537    2.7526   50.7741 H       1  ZINC001362451754    0.0500
     30 H30        -7.4824    0.0138   51.5659 H       1  ZINC001362451754    0.3800
     31 H31        -5.2994    0.1436   49.8067 H       1  ZINC001362451754    0.0900
     32 H32        -5.5741    1.8482   49.3142 H       1  ZINC001362451754    0.0800
     33 H33        -3.1846    1.6723   49.0929 H       1  ZINC001362451754    0.0800
     34 H34        -3.0506    0.5947   50.5163 H       1  ZINC001362451754    0.0800
     35 H35        -1.0540    5.2900   49.2275 H       1  ZINC001362451754    0.1600
     36 H36         0.8403    4.4412   47.7499 H       1  ZINC001362451754    0.1500
     37 H37         2.4848    2.4584   47.6021 H       1  ZINC001362451754    0.1100
     38 H38         2.0249    0.9353   48.4003 H       1  ZINC001362451754    0.1100
     39 H39        -0.9247    0.7705   47.0849 H       1  ZINC001362451754    0.1800
     40 H40         1.2277    0.4951   43.3945 H       1  ZINC001362451754    0.1900
@<TRIPOS>BOND
     1     1     2    1
     2     1    25    1
     3     1    26    1
     4     1    27    1
     5     2     3    1
     6     2    10    1
     7     2     4    1
     8     4     5    1
     9     4     6    1
    10     4     8    1
    11     6     7    1
    12     6    28    1
    13     6    29    1
    14     7    30    1
    15     8     9    1
    16     8    31    1
    17     8    32    1
    18     9    10    1
    19     9    33    1
    20     9    34    1
    21    10    11   am
    22    11    12    2
    23    11    13    1
    24    13    24    1
    25    13    14    2
    26    14    15    1
    27    14    35    1
    28    15    16    2
    29    15    36    1
    30    16    17    1
    31    16    24    1
    32    17    18    1
    33    17    37    1
    34    17    38    1
    35    18    23    1
    36    18    19    1
    37    19    20    2
    38    19    39    1
    39    20    21    1
    40    20    22    1
    41    22    23    2
    42    22    40    1
@<TRIPOS>SUBSTRUCTURE
     1 ZINC001362451754        1 TEMP              0 ****  ****    0 ROOT


##########                                Name:    ZINC000516003207
##########                DOCK_Rotatable_Bonds:                   5
##########                         Heavy_Atoms:                  24
##########                    Molecular_Weight:             342.462
##########                DOCK_Rotatable_Bonds:                   5
##########                       Formal_Charge:          -0.0200001
##########                     HBond_Acceptors:                   5
##########                        HBond_Donors:                   1
##########                         Heavy_Atoms:                  24
##########                          Grid_Score:          -27.739347
##########                     Grid_vdw_energy:          -27.978312
##########                      Grid_es_energy:            0.238965
##########           Internal_energy_repulsive:            8.779569

@<TRIPOS>MOLECULE
ZINC000516003207
 46 49 1 0 0
SMALL
USER_CHARGES


@<TRIPOS>ATOM
      1 C1          1.5425    0.5551   43.0651 C.3     1  ZINC000516003207    0.0300
      2 O2          1.2912    0.6486   44.4688 O.3     1  ZINC000516003207   -0.3600
      3 C3          0.1364    1.4213   44.8023 C.3     1  ZINC000516003207    0.0900
      4 H4         -0.3099    1.9116   43.9371 H       1  ZINC000516003207    0.0800
      5 C5         -0.8805    0.6664   45.6776 C.3     1  ZINC000516003207   -0.1700
      6 C6         -0.1200    1.2089   46.9012 C.3     1  ZINC000516003207    0.1500
      7 H7          0.6887    0.5599   47.2368 H       1  ZINC000516003207    0.1200
      8 N8         -0.9956    1.6398   47.9941 N.am    1  ZINC000516003207   -0.7200
      9 C9         -0.4745    1.9158   49.2060 C.2     1  ZINC000516003207    0.5600
     10 O10         0.7220    1.8089   49.3919 O.2     1  ZINC000516003207   -0.5300
     11 C11        -1.3583    2.3490   50.3095 C.ar    1  ZINC000516003207   -0.1400
     12 C12        -0.8422    3.1046   51.3641 C.ar    1  ZINC000516003207   -0.0800
     13 C13        -1.6670    3.5088   52.3949 C.ar    1  ZINC000516003207   -0.1200
     14 C14        -3.0056    3.1694   52.3895 C.ar    1  ZINC000516003207   -0.0800
     15 C15        -3.5335    2.4153   51.3416 C.ar    1  ZINC000516003207   -0.0300
     16 C16        -4.9719    2.0522   51.3384 C.2     1  ZINC000516003207    0.1100
     17 C17        -5.5014    1.1596   50.4778 C.2     1  ZINC000516003207   -0.2600
     18 S18        -7.2242    1.0318   50.8229 S.3     1  ZINC000516003207    0.1400
     19 C19        -7.0708    2.1797   52.0798 C.2     1  ZINC000516003207    0.0600
     20 C20        -8.2055    2.6606   52.9473 C.3     1  ZINC000516003207   -0.0800
     21 N21        -5.8486    2.5724   52.1852 N.2     1  ZINC000516003207   -0.4700
     22 C22        -2.7100    2.0088   50.2968 C.ar    1  ZINC000516003207   -0.0300
     23 C23         0.3456    2.3538   45.9959 C.3     1  ZINC000516003207   -0.1100
     24 C24         1.6857    3.0521   46.2301 C.3     1  ZINC000516003207   -0.1200
     25 C25         1.0379    4.3098   45.6230 C.3     1  ZINC000516003207   -0.1400
     26 C26        -0.3211    3.7287   46.0534 C.3     1  ZINC000516003207   -0.1200
     27 H27         1.6947    1.5539   42.6560 H       1  ZINC000516003207    0.0400
     28 H28         2.4351   -0.0470   42.8951 H       1  ZINC000516003207    0.0900
     29 H29         0.6895    0.0872   42.5737 H       1  ZINC000516003207    0.0400
     30 H30        -1.8979    1.0483   45.5920 H       1  ZINC000516003207    0.0900
     31 H31        -0.8247   -0.4173   45.5747 H       1  ZINC000516003207    0.0800
     32 H32        -1.9502    1.7264   47.8454 H       1  ZINC000516003207    0.4000
     33 H33         0.2039    3.3730   51.3737 H       1  ZINC000516003207    0.1300
     34 H34        -1.2634    4.0926   53.2090 H       1  ZINC000516003207    0.1400
     35 H35        -3.6455    3.4883   53.1991 H       1  ZINC000516003207    0.1300
     36 H36        -4.9644    0.6191   49.7123 H       1  ZINC000516003207    0.1800
     37 H37        -9.1281    2.1643   52.6467 H       1  ZINC000516003207    0.0800
     38 H38        -7.9900    2.4267   53.9899 H       1  ZINC000516003207    0.0900
     39 H39        -8.3188    3.7387   52.8327 H       1  ZINC000516003207    0.0900
     40 H40        -3.1144    1.4248   49.4833 H       1  ZINC000516003207    0.1500
     41 H41         1.9451    3.1587   47.2835 H       1  ZINC000516003207    0.0800
     42 H42         2.5009    2.6469   45.6306 H       1  ZINC000516003207    0.0800
     43 H43         1.3027    5.2306   46.1425 H       1  ZINC000516003207    0.0700
     44 H44         1.1580    4.3834   44.5420 H       1  ZINC000516003207    0.0800
     45 H45        -1.1092    3.8640   45.3126 H       1  ZINC000516003207    0.0700
     46 H46        -0.6257    4.0255   47.0570 H       1  ZINC000516003207    0.0900
@<TRIPOS>BOND
     1     1     2    1
     2     1    27    1
     3     1    28    1
     4     1    29    1
     5     2     3    1
     6     3     4    1
     7     3    23    1
     8     3     5    1
     9     5     6    1
    10     5    30    1
    11     5    31    1
    12     6     7    1
    13     6     8    1
    14     6    23    1
    15     8     9   am
    16     8    32    1
    17     9    10    2
    18     9    11    1
    19    11    22   ar
    20    11    12   ar
    21    12    13   ar
    22    12    33    1
    23    13    14   ar
    24    13    34    1
    25    14    15   ar
    26    14    35    1
    27    15    16    1
    28    15    22   ar
    29    16    21    1
    30    16    17    2
    31    17    18    1
    32    17    36    1
    33    18    19    1
    34    19    20    1
    35    19    21    2
    36    20    37    1
    37    20    38    1
    38    20    39    1
    39    22    40    1
    40    23    26    1
    41    23    24    1
    42    24    25    1
    43    24    41    1
    44    24    42    1
    45    25    26    1
    46    25    43    1
    47    25    44    1
    48    26    45    1
    49    26    46    1
@<TRIPOS>SUBSTRUCTURE
     1 ZINC000516003207        1 TEMP              0 ****  ****    0 ROOT


##########                                Name:    ZINC001176298561
##########                DOCK_Rotatable_Bonds:                   6
##########                         Heavy_Atoms:                  23
##########                    Molecular_Weight:             337.781
##########                DOCK_Rotatable_Bonds:                   6
##########                       Formal_Charge:          -0.0100003
##########                     HBond_Acceptors:                   7
##########                        HBond_Donors:                   2
##########                         Heavy_Atoms:                  23
##########                          Grid_Score:          -27.737375
##########                     Grid_vdw_energy:          -28.462103
##########                      Grid_es_energy:            0.724727
##########           Internal_energy_repulsive:           11.273520

@<TRIPOS>MOLECULE
ZINC001176298561
 40 41 1 0 0
SMALL
USER_CHARGES


@<TRIPOS>ATOM
      1 C1         -1.4166   -0.2188   44.0537 C.3     1  ZINC001176298561   -0.1700
      2 C2         -0.1108    0.5662   44.1938 C.3     1  ZINC001176298561    0.1100
      3 N3         -0.0307    1.1448   45.5373 N.am    1  ZINC001176298561   -0.6100
      4 C4          0.8702    0.5607   46.5340 C.3     1  ZINC001176298561    0.0900
      5 C5          2.2405    1.2349   46.4400 C.3     1  ZINC001176298561   -0.1800
      6 C6         -0.7859    2.2145   45.8564 C.2     1  ZINC001176298561    0.5600
      7 O7         -1.5334    2.6992   45.0296 O.2     1  ZINC001176298561   -0.5300
      8 C8         -0.7052    2.7985   47.2126 C.ar    1  ZINC001176298561   -0.0600
      9 C9         -0.1280    4.0553   47.3999 C.ar    1  ZINC001176298561   -0.1900
     10 C10        -0.0535    4.5992   48.6690 C.ar    1  ZINC001176298561    0.1400
     11 F11         0.5051    5.8161   48.8487 F       1  ZINC001176298561   -0.1300
     12 C12        -0.5504    3.9006   49.7556 C.ar    1  ZINC001176298561   -0.1800
     13 C13        -1.1268    2.6483   49.5774 C.ar    1  ZINC001176298561    0.2400
     14 N14        -1.6273    1.9471   50.6768 N.pl3   1  ZINC001176298561   -0.6700
     15 C15        -2.9622    2.1135   51.0647 C.2     1  ZINC001176298561    0.0400
     16 C16        -3.9551    1.3985   50.4524 C.2     1  ZINC001176298561   -0.0300
     17 C17        -5.2846    1.5839   50.8605 C.2     1  ZINC001176298561   -0.1300
     18 Cl18       -6.5597    0.6867   50.0970 Cl      1  ZINC001176298561   -0.0400
     19 C19        -5.5733    2.4616   51.8493 C.2     1  ZINC001176298561    0.1400
     20 N20        -4.5867    3.1735   52.4590 N.am    1  ZINC001176298561   -0.6000
     21 C21        -3.2992    3.0172   52.0963 C.2     1  ZINC001176298561    0.5100
     22 O22        -2.4252    3.6626   52.6527 O.2     1  ZINC001176298561   -0.5200
     23 C23        -1.2108    2.0976   48.3072 C.ar    1  ZINC001176298561   -0.1300
     24 H24        -1.4762   -0.6494   43.0541 H       1  ZINC001176298561    0.0700
     25 H25        -1.4419   -1.0173   44.7952 H       1  ZINC001176298561    0.0600
     26 H26        -2.2620    0.4509   44.2119 H       1  ZINC001176298561    0.0600
     27 H27         0.7345   -0.1035   44.0357 H       1  ZINC001176298561    0.0800
     28 H28        -0.0855    1.3646   43.4522 H       1  ZINC001176298561    0.0900
     29 H29         0.4575    0.7140   47.5311 H       1  ZINC001176298561    0.0900
     30 H30         0.9772   -0.5076   46.3453 H       1  ZINC001176298561    0.0800
     31 H31         2.1088    2.3035   46.2705 H       1  ZINC001176298561    0.0700
     32 H32         2.7867    1.0790   47.3703 H       1  ZINC001176298561    0.0700
     33 H33         2.8023    0.8022   45.6122 H       1  ZINC001176298561    0.0600
     34 H34         0.2609    4.6026   46.5541 H       1  ZINC001176298561    0.1500
     35 H35        -0.4896    4.3296   50.7450 H       1  ZINC001176298561    0.1300
     36 H36        -1.0499    1.3449   51.1717 H       1  ZINC001176298561    0.4200
     37 H37        -3.7183    0.6995   49.6639 H       1  ZINC001176298561    0.1500
     38 H38        -6.5990    2.5989   52.1580 H       1  ZINC001176298561    0.1800
     39 H39        -4.8132    3.7982   53.1657 H       1  ZINC001176298561    0.4300
     40 H40        -1.6584    1.1247   48.1673 H       1  ZINC001176298561    0.1400
@<TRIPOS>BOND
     1     1     2    1
     2     1    24    1
     3     1    25    1
     4     1    26    1
     5     2     3    1
     6     2    27    1
     7     2    28    1
     8     3     4    1
     9     3     6   am
    10     4     5    1
    11     4    29    1
    12     4    30    1
    13     5    31    1
    14     5    32    1
    15     5    33    1
    16     6     7    2
    17     6     8    1
    18     8    23   ar
    19     8     9   ar
    20     9    10   ar
    21     9    34    1
    22    10    11    1
    23    10    12   ar
    24    12    13   ar
    25    12    35    1
    26    13    14    1
    27    13    23   ar
    28    14    15    1
    29    14    36    1
    30    15    21    1
    31    15    16    2
    32    16    17    1
    33    16    37    1
    34    17    18    1
    35    17    19    2
    36    19    20    1
    37    19    38    1
    38    20    21   am
    39    20    39    1
    40    21    22    2
    41    23    40    1
@<TRIPOS>SUBSTRUCTURE
     1 ZINC001176298561        1 TEMP              0 ****  ****    0 ROOT


##########                                Name:    ZINC001231746020
##########                DOCK_Rotatable_Bonds:                   3
##########                         Heavy_Atoms:                  19
##########                    Molecular_Weight:             348.667
##########                DOCK_Rotatable_Bonds:                   3
##########                       Formal_Charge:          -0.0399997
##########                     HBond_Acceptors:                   4
##########                        HBond_Donors:                   2
##########                         Heavy_Atoms:                  19
##########                          Grid_Score:          -27.697109
##########                     Grid_vdw_energy:          -24.455690
##########                      Grid_es_energy:           -3.241419
##########           Internal_energy_repulsive:           10.652724

@<TRIPOS>MOLECULE
ZINC001231746020
 38 39 1 0 0
SMALL
USER_CHARGES


@<TRIPOS>ATOM
      1 C1         -0.4804    2.7958   57.8875 C.3     1  ZINC001231746020   -0.1500
      2 C2         -1.1194    3.2080   56.5598 C.3     1  ZINC001231746020   -0.0900
      3 H3         -1.5939    2.3419   56.0984 H       1  ZINC001231746020    0.0800
      4 C4         -2.1508    4.2764   56.8066 C.3     1  ZINC001231746020   -0.1400
      5 C5         -3.3273    4.2349   55.8148 C.3     1  ZINC001231746020   -0.0100
      6 N6         -2.9121    4.0032   54.4147 N.4     1  ZINC001231746020   -0.3800
      7 H7         -2.7198    3.0209   54.2875 H       1  ZINC001231746020    0.4100
      8 C8         -4.0091    4.3949   53.5197 C.3     1  ZINC001231746020    0.0700
      9 C9         -4.2922    3.2750   52.5519 C.ar    1  ZINC001231746020   -0.3100
     10 C10        -3.2912    2.8156   51.7164 C.ar    1  ZINC001231746020   -0.0300
     11 C11        -3.5481    1.7878   50.8278 C.ar    1  ZINC001231746020   -0.1600
     12 Cl12       -2.2906    1.2115   49.7789 Cl      1  ZINC001231746020   -0.0800
     13 C13        -4.8123    1.2178   50.7749 C.ar    1  ZINC001231746020    0.3100
     14 O14        -5.0676    0.2069   49.9026 O.3     1  ZINC001231746020   -0.6300
     15 C15        -5.8153    1.6814   51.6146 C.ar    1  ZINC001231746020   -0.2100
     16 Br16       -7.5396    0.9079   51.5462 Br      1  ZINC001231746020   -0.0600
     17 C17        -5.5512    2.7050   52.5052 C.ar    1  ZINC001231746020   -0.0200
     18 C18        -1.7325    4.7593   54.0704 C.3     1  ZINC001231746020   -0.0200
     19 C19        -0.5146    3.8366   54.2395 C.3     1  ZINC001231746020   -0.1800
     20 C20        -0.0309    3.7727   55.6131 C.3     1  ZINC001231746020    0.1000
     21 H21         0.8477    3.1289   55.6535 H       1  ZINC001231746020    0.0700
     22 O22         0.3310    5.0861   56.0447 O.3     1  ZINC001231746020   -0.5600
     23 H23        -1.2495    2.4095   58.5564 H       1  ZINC001231746020    0.0600
     24 H24        -0.0026    3.6621   58.3451 H       1  ZINC001231746020    0.0700
     25 H25         0.2661    2.0223   57.7068 H       1  ZINC001231746020    0.0600
     26 H26        -2.5418    4.1573   57.8170 H       1  ZINC001231746020    0.1000
     27 H27        -1.6685    5.2510   56.7325 H       1  ZINC001231746020    0.1000
     28 H28        -4.0074    3.4372   56.1135 H       1  ZINC001231746020    0.1200
     29 H29        -3.8618    5.1833   55.8677 H       1  ZINC001231746020    0.1200
     30 H30        -4.9029    4.6007   54.1088 H       1  ZINC001231746020    0.1200
     31 H31        -3.7247    5.2900   52.9664 H       1  ZINC001231746020    0.1200
     32 H32        -2.3076    3.2597   51.7580 H       1  ZINC001231746020    0.1100
     33 H33        -6.3300    3.0626   53.1625 H       1  ZINC001231746020    0.1100
     34 H34        -1.7993    5.0963   53.0360 H       1  ZINC001231746020    0.1400
     35 H35        -1.6393    5.6196   54.7332 H       1  ZINC001231746020    0.1300
     36 H36        -0.7887    2.8320   53.9174 H       1  ZINC001231746020    0.0900
     37 H37         0.2917    4.2002   53.6024 H       1  ZINC001231746020    0.1100
     38 H38        -0.4097    5.7068   56.0790 H       1  ZINC001231746020    0.3900
@<TRIPOS>BOND
     1     1     2    1
     2     1    23    1
     3     1    24    1
     4     1    25    1
     5     2     3    1
     6     2    20    1
     7     2     4    1
     8     4     5    1
     9     4    26    1
    10     4    27    1
    11     5     6    1
    12     5    28    1
    13     5    29    1
    14     6     7    1
    15     6     8    1
    16     6    18    1
    17     8     9    1
    18     8    30    1
    19     8    31    1
    20     9    17   ar
    21     9    10   ar
    22    10    11   ar
    23    10    32    1
    24    11    12    1
    25    11    13   ar
    26    13    14    1
    27    13    15   ar
    28    15    16    1
    29    15    17   ar
    30    17    33    1
    31    18    19    1
    32    18    34    1
    33    18    35    1
    34    19    20    1
    35    19    36    1
    36    19    37    1
    37    20    21    1
    38    20    22    1
    39    22    38    1
@<TRIPOS>SUBSTRUCTURE
     1 ZINC001231746020        1 TEMP              0 ****  ****    0 ROOT


##########                                Name:    ZINC000550011575
##########                DOCK_Rotatable_Bonds:                   6
##########                         Heavy_Atoms:                  28
##########                    Molecular_Weight:             423.935
##########                DOCK_Rotatable_Bonds:                   6
##########                       Formal_Charge:          -0.0100002
##########                     HBond_Acceptors:                   7
##########                        HBond_Donors:                   0
##########                         Heavy_Atoms:                  28
##########                          Grid_Score:          -27.679377
##########                     Grid_vdw_energy:          -27.934546
##########                      Grid_es_energy:            0.255168
##########           Internal_energy_repulsive:           37.655548

@<TRIPOS>MOLECULE
ZINC000550011575
 51 53 1 0 0
SMALL
USER_CHARGES


@<TRIPOS>ATOM
      1 C1         -0.2699    4.2032   48.7151 C.3     1  ZINC000550011575   -0.1400
      2 C2         -0.8887    2.8167   48.9034 C.3     1  ZINC000550011575   -0.6100
      3 H3         -1.8534    2.7776   48.3975 H       1  ZINC000550011575    0.1500
      4 C4          0.0281    1.7736   48.3181 C.2     1  ZINC000550011575    0.5400
      5 O5          0.8365    1.2110   49.0258 O.2     1  ZINC000550011575   -0.5100
      6 N6         -0.0502    1.4662   47.0082 N.am    1  ZINC000550011575   -0.6000
      7 C7         -1.0255    2.1473   46.1531 C.3     1  ZINC000550011575    0.0600
      8 C8          0.8399    0.4510   46.4397 C.3     1  ZINC000550011575    0.1500
      9 C9          1.8710    1.1188   45.5668 C.ar    1  ZINC000550011575   -0.1500
     10 C10         1.5790    1.4032   44.2439 C.ar    1  ZINC000550011575    0.1400
     11 F11         0.3696    1.0821   43.7346 F       1  ZINC000550011575   -0.1100
     12 C12         2.5273    2.0174   43.4430 C.ar    1  ZINC000550011575   -0.1500
     13 C13         3.7640    2.3460   43.9645 C.ar    1  ZINC000550011575   -0.0700
     14 C14         4.0556    2.0621   45.2857 C.ar    1  ZINC000550011575   -0.1300
     15 C15         3.1077    1.4533   46.0887 C.ar    1  ZINC000550011575    0.0000
     16 Cl16        3.4746    1.0977   47.7478 Cl      1  ZINC000550011575   -0.0500
     17 S17        -1.1207    2.4933   50.6733 S.o2    1  ZINC000550011575    2.4500
     18 O18        -1.5537    1.1495   50.8350 O.2     1  ZINC000550011575   -0.9200
     19 O19         0.0349    2.9385   51.3701 O.2     1  ZINC000550011575   -0.9100
     20 C20        -2.5012    3.5981   51.0783 C.3     1  ZINC000550011575   -0.5300
     21 H21        -2.6079    4.3437   50.2904 H       1  ZINC000550011575    0.1500
     22 C22        -2.2109    4.3025   52.4021 C.3     1  ZINC000550011575   -0.1100
     23 C23        -3.4721    5.0593   52.8346 C.3     1  ZINC000550011575   -0.1100
     24 C24        -4.5324    4.0373   53.2400 C.3     1  ZINC000550011575   -0.0900
     25 C25        -4.7072    3.0001   52.1617 C.ar    1  ZINC000550011575   -0.0600
     26 C26        -5.8651    2.2338   52.1834 C.ar    1  ZINC000550011575   -0.1200
     27 C27        -6.0817    1.2635   51.2267 C.ar    1  ZINC000550011575   -0.1100
     28 C28        -5.1386    1.0510   50.2388 C.ar    1  ZINC000550011575   -0.1100
     29 C29        -3.9886    1.8130   50.2142 C.ar    1  ZINC000550011575   -0.1500
     30 C30        -3.7703    2.7925   51.1748 C.ar    1  ZINC000550011575   -0.0800
     31 H31        -0.9991    4.9665   48.9872 H       1  ZINC000550011575    0.0900
     32 H32         0.6098    4.2980   49.3517 H       1  ZINC000550011575    0.0900
     33 H33         0.0202    4.3331   47.6726 H       1  ZINC000550011575    0.0800
     34 H34        -0.5732    3.0436   45.7287 H       1  ZINC000550011575    0.0700
     35 H35        -1.3320    1.4791   45.3483 H       1  ZINC000550011575    0.0800
     36 H36        -1.8967    2.4256   46.7459 H       1  ZINC000550011575    0.0700
     37 H37         1.3394   -0.0867   47.2456 H       1  ZINC000550011575    0.1000
     38 H38         0.2568   -0.2498   45.8421 H       1  ZINC000550011575    0.1100
     39 H39         2.3003    2.2392   42.4108 H       1  ZINC000550011575    0.1500
     40 H40         4.5034    2.8247   43.3395 H       1  ZINC000550011575    0.1500
     41 H41         5.0226    2.3191   45.6922 H       1  ZINC000550011575    0.1400
     42 H42        -1.9474    3.5649   53.1602 H       1  ZINC000550011575    0.0800
     43 H43        -1.3879    5.0051   52.2712 H       1  ZINC000550011575    0.0900
     44 H44        -3.2407    5.7041   53.6825 H       1  ZINC000550011575    0.0800
     45 H45        -3.8414    5.6619   52.0047 H       1  ZINC000550011575    0.0700
     46 H46        -4.2247    3.5473   54.1636 H       1  ZINC000550011575    0.0800
     47 H47        -5.4807    4.5490   53.4037 H       1  ZINC000550011575    0.0800
     48 H48        -6.6020    2.3986   52.9556 H       1  ZINC000550011575    0.1300
     49 H49        -6.9849    0.6717   51.2499 H       1  ZINC000550011575    0.1300
     50 H50        -5.3012    0.2910   49.4889 H       1  ZINC000550011575    0.1300
     51 H51        -3.2519    1.6460   49.4423 H       1  ZINC000550011575    0.1700
@<TRIPOS>BOND
     1     1     2    1
     2     1    31    1
     3     1    32    1
     4     1    33    1
     5     2     3    1
     6     2     4    1
     7     2    17    1
     8     4     5    2
     9     4     6   am
    10     6     7    1
    11     6     8    1
    12     7    34    1
    13     7    35    1
    14     7    36    1
    15     8     9    1
    16     8    37    1
    17     8    38    1
    18     9    15   ar
    19     9    10   ar
    20    10    11    1
    21    10    12   ar
    22    12    13   ar
    23    12    39    1
    24    13    14   ar
    25    13    40    1
    26    14    15   ar
    27    14    41    1
    28    15    16    1
    29    17    18    2
    30    17    19    2
    31    17    20    1
    32    20    21    1
    33    20    30    1
    34    20    22    1
    35    22    23    1
    36    22    42    1
    37    22    43    1
    38    23    24    1
    39    23    44    1
    40    23    45    1
    41    24    25    1
    42    24    46    1
    43    24    47    1
    44    25    30   ar
    45    25    26   ar
    46    26    27   ar
    47    26    48    1
    48    27    28   ar
    49    27    49    1
    50    28    29   ar
    51    28    50    1
    52    29    30   ar
    53    29    51    1
@<TRIPOS>SUBSTRUCTURE
     1 ZINC000550011575        1 TEMP              0 ****  ****    0 ROOT


##########                                Name:    ZINC000277311370
##########                DOCK_Rotatable_Bonds:                   5
##########                         Heavy_Atoms:                  17
##########                    Molecular_Weight:             361.036
##########                DOCK_Rotatable_Bonds:                   5
##########                       Formal_Charge:        -7.45058e-08
##########                     HBond_Acceptors:                   4
##########                        HBond_Donors:                   1
##########                         Heavy_Atoms:                  17
##########                          Grid_Score:          -27.655107
##########                     Grid_vdw_energy:          -27.249683
##########                      Grid_es_energy:           -0.405425
##########           Internal_energy_repulsive:            7.714657

@<TRIPOS>MOLECULE
ZINC000277311370
 28 28 1 0 0
SMALL
USER_CHARGES


@<TRIPOS>ATOM
      1 C1         -0.0784    4.2399   46.1615 C.3     1  ZINC000277311370   -0.1500
      2 C2         -0.3894    3.0783   45.2154 C.3     1  ZINC000277311370   -0.1000
      3 C3          0.7617    2.9074   44.2221 C.3     1  ZINC000277311370   -0.1600
      4 C4         -0.5587    1.7918   46.0261 C.3     1  ZINC000277311370    0.2500
      5 H5          0.4117    1.4703   46.4043 H       1  ZINC000277311370    0.1400
      6 C6         -1.1229    0.7398   45.1648 C.1     1  ZINC000277311370    0.1900
      7 N7         -1.5582   -0.0721   44.5002 N.1     1  ZINC000277311370   -0.4100
      8 N8         -1.4637    2.0393   47.1513 N.am    1  ZINC000277311370   -0.7000
      9 C9         -1.2064    1.4924   48.3560 C.2     1  ZINC000277311370    0.5700
     10 O10        -0.2228    0.7952   48.5092 O.2     1  ZINC000277311370   -0.4900
     11 C11        -2.1221    1.7411   49.4930 C.ar    1  ZINC000277311370    0.1100
     12 N12        -3.2284    1.0178   49.6176 N.ar    1  ZINC000277311370   -0.4300
     13 C13        -4.0679    1.2066   50.6131 C.ar    1  ZINC000277311370    0.1300
     14 Br14       -5.6264    0.1423   50.7331 Br      1  ZINC000277311370    0.0200
     15 C15        -3.8253    2.1754   51.5758 C.ar    1  ZINC000277311370   -0.1100
     16 C16        -2.6825    2.9528   51.4841 C.ar    1  ZINC000277311370   -0.0400
     17 C17        -1.8126    2.7287   50.4267 C.ar    1  ZINC000277311370   -0.0900
     18 Br18       -0.2361    3.7575   50.2473 Br      1  ZINC000277311370    0.0300
     19 H19         0.0423    5.1565   45.5840 H       1  ZINC000277311370    0.0700
     20 H20        -0.8984    4.3616   46.8691 H       1  ZINC000277311370    0.0700
     21 H21         0.8425    4.0291   46.7052 H       1  ZINC000277311370    0.0600
     22 H22        -1.3103    3.2891   44.6717 H       1  ZINC000277311370    0.1000
     23 H23         1.6826    2.6966   44.7658 H       1  ZINC000277311370    0.0600
     24 H24         0.5402    2.0798   43.5482 H       1  ZINC000277311370    0.0600
     25 H25         0.8824    3.8240   43.6446 H       1  ZINC000277311370    0.0700
     26 H26        -2.2481    2.5968   47.0293 H       1  ZINC000277311370    0.4200
     27 H27        -4.5208    2.3222   52.3888 H       1  ZINC000277311370    0.1600
     28 H28        -2.4714    3.7134   52.2213 H       1  ZINC000277311370    0.1700
@<TRIPOS>BOND
     1     1     2    1
     2     1    19    1
     3     1    20    1
     4     1    21    1
     5     2     3    1
     6     2     4    1
     7     2    22    1
     8     3    23    1
     9     3    24    1
    10     3    25    1
    11     4     5    1
    12     4     6    1
    13     4     8    1
    14     6     7    3
    15     8     9   am
    16     8    26    1
    17     9    10    2
    18     9    11    1
    19    11    17   ar
    20    11    12   ar
    21    12    13   ar
    22    13    14    1
    23    13    15   ar
    24    15    16   ar
    25    15    27    1
    26    16    17   ar
    27    16    28    1
    28    17    18    1
@<TRIPOS>SUBSTRUCTURE
     1 ZINC000277311370        1 TEMP              0 ****  ****    0 ROOT


##########                                Name:    ZINC001060620810
##########                DOCK_Rotatable_Bonds:                   5
##########                         Heavy_Atoms:                  24
##########                    Molecular_Weight:             332.421
##########                DOCK_Rotatable_Bonds:                   5
##########                       Formal_Charge:           0.0299998
##########                     HBond_Acceptors:                   6
##########                        HBond_Donors:                   2
##########                         Heavy_Atoms:                  24
##########                          Grid_Score:          -27.617905
##########                     Grid_vdw_energy:          -26.677460
##########                      Grid_es_energy:           -0.940445
##########           Internal_energy_repulsive:           10.792891

@<TRIPOS>MOLECULE
ZINC001060620810
 49 52 1 0 0
SMALL
USER_CHARGES


@<TRIPOS>ATOM
      1 O1         -3.9831    0.4343   50.4579 O.2     1  ZINC001060620810   -0.5400
      2 C2         -4.0320    1.5911   50.8192 C.2     1  ZINC001060620810    0.5500
      3 N3         -2.9254    2.3591   50.7723 N.am    1  ZINC001060620810   -0.7200
      4 C4         -1.6640    1.7971   50.2831 C.3     1  ZINC001060620810    0.1400
      5 C5         -1.6148    1.9059   48.7578 C.3     1  ZINC001060620810   -0.1300
      6 C6         -0.2974    1.3191   48.2469 C.3     1  ZINC001060620810   -0.1300
      7 C7          0.8749    2.0945   48.8516 C.3     1  ZINC001060620810    0.1600
      8 N8          0.7830    3.5029   48.4591 N.pl3   1  ZINC001060620810   -0.6900
      9 C9          1.0664    3.8789   47.1562 C.ar    1  ZINC001060620810    0.5600
     10 N10         0.7134    5.0862   46.7411 N.ar    1  ZINC001060620810   -0.5400
     11 C11         0.9729    5.4795   45.5049 C.ar    1  ZINC001060620810    0.1700
     12 C12         1.6134    4.6056   44.6375 C.ar    1  ZINC001060620810   -0.0700
     13 F13         1.8897    4.9724   43.3669 F       1  ZINC001060620810   -0.1300
     14 C14         1.9641    3.3468   45.1048 C.ar    1  ZINC001060620810    0.1800
     15 N15         1.6788    3.0205   46.3548 N.ar    1  ZINC001060620810   -0.5500
     16 C16         0.8257    1.9857   50.3769 C.3     1  ZINC001060620810   -0.1200
     17 C17        -0.4918    2.5726   50.8877 C.3     1  ZINC001060620810   -0.1300
     18 C18        -5.3300    2.1696   51.3207 C.3     1  ZINC001060620810   -0.1500
     19 C19        -6.5203    1.2196   51.3357 C.3     1  ZINC001060620810   -0.1500
     20 C20        -6.4381    2.3097   50.2888 C.3     1  ZINC001060620810   -0.1100
     21 H21        -6.2199    1.9782   49.2737 H       1  ZINC001060620810    0.1100
     22 C22        -7.4451    3.4519   50.3797 C.3     1  ZINC001060620810   -0.0900
     23 C23        -6.8997    4.5771   51.2594 C.3     1  ZINC001060620810   -0.1200
     24 C24        -6.4826    3.9831   52.6096 C.3     1  ZINC001060620810   -0.1200
     25 C25        -5.1779    3.2096   52.4197 C.3     1  ZINC001060620810   -0.0800
     26 H26        -2.9642    3.2838   51.0624 H       1  ZINC001060620810    0.4000
     27 H27        -1.5956    0.7492   50.5751 H       1  ZINC001060620810    0.0900
     28 H28        -2.4498    1.3535   48.3269 H       1  ZINC001060620810    0.0700
     29 H29        -1.6831    2.9538   48.4658 H       1  ZINC001060620810    0.0600
     30 H30        -0.2623    1.3965   47.1602 H       1  ZINC001060620810    0.0700
     31 H31        -0.2290    0.2711   48.5388 H       1  ZINC001060620810    0.0800
     32 H32         1.8134    1.6763   48.4876 H       1  ZINC001060620810    0.1000
     33 H33         0.5237    4.1722   49.1116 H       1  ZINC001060620810    0.4100
     34 H34         0.6859    6.4664   45.1735 H       1  ZINC001060620810    0.1800
     35 H35         2.4632    2.6423   44.4561 H       1  ZINC001060620810    0.1800
     36 H36         1.6607    2.5380   50.8076 H       1  ZINC001060620810    0.0800
     37 H37         0.8940    0.9377   50.6688 H       1  ZINC001060620810    0.0900
     38 H38        -0.5601    3.6204   50.5958 H       1  ZINC001060620810    0.0700
     39 H39        -0.5268    2.4950   51.9744 H       1  ZINC001060620810    0.0800
     40 H40        -6.3524    0.1959   51.0012 H       1  ZINC001060620810    0.1000
     41 H41        -7.2511    1.3401   52.1355 H       1  ZINC001060620810    0.1100
     42 H42        -8.3647    3.0643   50.8181 H       1  ZINC001060620810    0.0700
     43 H43        -7.6559    3.8417   49.3839 H       1  ZINC001060620810    0.0700
     44 H44        -7.6736    5.3290   51.4136 H       1  ZINC001060620810    0.0700
     45 H45        -6.0346    5.0322   50.7769 H       1  ZINC001060620810    0.0700
     46 H46        -7.2596    3.3078   52.9680 H       1  ZINC001060620810    0.0700
     47 H47        -6.3305    4.7858   53.3312 H       1  ZINC001060620810    0.0700
     48 H48        -4.9162    2.7109   53.3530 H       1  ZINC001060620810    0.0700
     49 H49        -4.3839    3.9056   52.1490 H       1  ZINC001060620810    0.0700
@<TRIPOS>BOND
     1     1     2    2
     2     2     3   am
     3     2    18    1
     4     3     4    1
     5     3    26    1
     6     4    17    1
     7     4     5    1
     8     4    27    1
     9     5     6    1
    10     5    28    1
    11     5    29    1
    12     6     7    1
    13     6    30    1
    14     6    31    1
    15     7     8    1
    16     7    16    1
    17     7    32    1
    18     8     9    1
    19     8    33    1
    20     9    15   ar
    21     9    10   ar
    22    10    11   ar
    23    11    12   ar
    24    11    34    1
    25    12    13    1
    26    12    14   ar
    27    14    15   ar
    28    14    35    1
    29    16    17    1
    30    16    36    1
    31    16    37    1
    32    17    38    1
    33    17    39    1
    34    18    20    1
    35    18    25    1
    36    18    19    1
    37    19    20    1
    38    19    40    1
    39    19    41    1
    40    20    21    1
    41    20    22    1
    42    22    23    1
    43    22    42    1
    44    22    43    1
    45    23    24    1
    46    23    44    1
    47    23    45    1
    48    24    25    1
    49    24    46    1
    50    24    47    1
    51    25    48    1
    52    25    49    1
@<TRIPOS>SUBSTRUCTURE
     1 ZINC001060620810        1 TEMP              0 ****  ****    0 ROOT


##########                                Name:    ZINC000130059363
##########                DOCK_Rotatable_Bonds:                   4
##########                         Heavy_Atoms:                  29
##########                    Molecular_Weight:             389.497
##########                DOCK_Rotatable_Bonds:                   4
##########                       Formal_Charge:          -0.0100003
##########                     HBond_Acceptors:                   5
##########                        HBond_Donors:                   0
##########                         Heavy_Atoms:                  29
##########                          Grid_Score:          -27.541908
##########                     Grid_vdw_energy:          -28.323301
##########                      Grid_es_energy:            0.781393
##########           Internal_energy_repulsive:           25.107132

@<TRIPOS>MOLECULE
ZINC000130059363
 56 60 1 0 0
SMALL
USER_CHARGES


@<TRIPOS>ATOM
      1 C1         -7.0577    3.5983   57.1730 C.3     1  ZINC000130059363   -0.1200
      2 C2         -7.7580    3.0357   55.9629 C.ar    1  ZINC000130059363    0.1900
      3 N3         -7.0656    2.7626   54.8789 N.ar    1  ZINC000130059363   -0.4800
      4 C4         -7.6395    2.2656   53.7894 C.ar    1  ZINC000130059363    0.2000
      5 C5         -6.8121    1.9753   52.5944 C.ar    1  ZINC000130059363   -0.0600
      6 C6         -5.5657    2.5814   52.4421 C.ar    1  ZINC000130059363   -0.1000
      7 C7         -4.7996    2.3069   51.3277 C.ar    1  ZINC000130059363   -0.1200
      8 C8         -5.2662    1.4326   50.3624 C.ar    1  ZINC000130059363   -0.1000
      9 C9         -6.5023    0.8287   50.5078 C.ar    1  ZINC000130059363   -0.1300
     10 C10        -7.2746    1.0907   51.6210 C.ar    1  ZINC000130059363   -0.0700
     11 C11        -9.0107    2.0129   53.7551 C.ar    1  ZINC000130059363   -0.1800
     12 C12        -9.7746    2.2857   54.8726 C.ar    1  ZINC000130059363   -0.0400
     13 C13        -9.1347    2.8046   56.0065 C.ar    1  ZINC000130059363   -0.1900
     14 C14        -9.9074    3.1126   57.2271 C.2     1  ZINC000130059363    0.5700
     15 O15       -10.5282    4.1548   57.3067 O.2     1  ZINC000130059363   -0.5200
     16 N16        -9.9242    2.2382   58.2526 N.am    1  ZINC000130059363   -0.6000
     17 C17       -10.6925    2.5252   59.4724 C.3     1  ZINC000130059363    0.1000
     18 C18       -11.6462    1.3548   59.7303 C.3     1  ZINC000130059363   -0.1500
     19 C19       -10.8618    0.0482   59.7741 C.3     1  ZINC000130059363    0.1500
     20 H20       -11.5695   -0.7677   59.9212 H       1  ZINC000130059363    0.0700
     21 C21       -10.1278   -0.1910   58.4562 C.3     1  ZINC000130059363   -0.1100
     22 H22       -10.8453   -0.3056   57.6438 H       1  ZINC000130059363    0.1000
     23 C23        -9.2899   -1.4709   58.6048 C.3     1  ZINC000130059363   -0.1200
     24 C24        -8.1698   -1.1949   59.6110 C.3     1  ZINC000130059363   -0.1400
     25 C25        -8.7291   -0.5467   60.8445 C.2     1  ZINC000130059363    0.5200
     26 O26        -8.0517   -0.5467   61.8505 O.2     1  ZINC000130059363   -0.5400
     27 N27        -9.9210    0.0371   60.8831 N.am    1  ZINC000130059363   -0.5700
     28 C28       -10.3329    0.6885   62.1291 C.3     1  ZINC000130059363    0.0700
     29 C29       -11.6451    0.2279   62.7668 C.3     1  ZINC000130059363   -0.1800
     30 C30       -10.3087   -0.1522   63.4072 C.3     1  ZINC000130059363   -0.1600
     31 C31        -9.1805    0.9749   58.1739 C.3     1  ZINC000130059363    0.1100
     32 H32        -6.8085    2.7878   57.8579 H       1  ZINC000130059363    0.0800
     33 H33        -6.1440    4.1044   56.8613 H       1  ZINC000130059363    0.0800
     34 H34        -7.7140    4.3093   57.6747 H       1  ZINC000130059363    0.1000
     35 H35        -5.2006    3.2646   53.1947 H       1  ZINC000130059363    0.1300
     36 H36        -3.8340    2.7756   51.2086 H       1  ZINC000130059363    0.1300
     37 H37        -4.6634    1.2210   49.4916 H       1  ZINC000130059363    0.1300
     38 H38        -6.8616    0.1473   49.7508 H       1  ZINC000130059363    0.1300
     39 H39        -8.2395    0.6186   51.7335 H       1  ZINC000130059363    0.1400
     40 H40        -9.4697    1.6089   52.8648 H       1  ZINC000130059363    0.1400
     41 H41       -10.8385    2.1002   54.8742 H       1  ZINC000130059363    0.1400
     42 H42       -10.0122    2.6371   60.3167 H       1  ZINC000130059363    0.0700
     43 H43       -11.2654    3.4427   59.3380 H       1  ZINC000130059363    0.0900
     44 H44       -12.1541    1.5045   60.6830 H       1  ZINC000130059363    0.0900
     45 H45       -12.3853    1.3070   58.9306 H       1  ZINC000130059363    0.0800
     46 H46        -9.9196   -2.2825   58.9690 H       1  ZINC000130059363    0.0800
     47 H47        -8.8595   -1.7427   57.6409 H       1  ZINC000130059363    0.0900
     48 H48        -7.6894   -2.1348   59.8832 H       1  ZINC000130059363    0.1000
     49 H49        -7.4322   -0.5328   59.1578 H       1  ZINC000130059363    0.1000
     50 H50       -10.0739    1.7436   62.2157 H       1  ZINC000130059363    0.1100
     51 H51       -12.2499    0.9802   63.2731 H       1  ZINC000130059363    0.1100
     52 H52       -12.2021   -0.5597   62.2593 H       1  ZINC000130059363    0.1000
     53 H53        -9.9863   -1.1898   63.3210 H       1  ZINC000130059363    0.1000
     54 H54       -10.0341    0.3501   64.3348 H       1  ZINC000130059363    0.1000
     55 H55        -8.7529    0.8639   57.1775 H       1  ZINC000130059363    0.1000
     56 H56        -8.3815    0.9827   58.9154 H       1  ZINC000130059363    0.0700
@<TRIPOS>BOND
     1     1     2    1
     2     1    32    1
     3     1    33    1
     4     1    34    1
     5     2    13   ar
     6     2     3   ar
     7     3     4   ar
     8     4     5    1
     9     4    11   ar
    10     5    10   ar
    11     5     6   ar
    12     6     7   ar
    13     6    35    1
    14     7     8   ar
    15     7    36    1
    16     8     9   ar
    17     8    37    1
    18     9    10   ar
    19     9    38    1
    20    10    39    1
    21    11    12   ar
    22    11    40    1
    23    12    13   ar
    24    12    41    1
    25    13    14    1
    26    14    15    2
    27    14    16   am
    28    16    31    1
    29    16    17    1
    30    17    18    1
    31    17    42    1
    32    17    43    1
    33    18    19    1
    34    18    44    1
    35    18    45    1
    36    19    20    1
    37    19    27    1
    38    19    21    1
    39    21    22    1
    40    21    23    1
    41    21    31    1
    42    23    24    1
    43    23    46    1
    44    23    47    1
    45    24    25    1
    46    24    48    1
    47    24    49    1
    48    25    26    2
    49    25    27   am
    50    27    28    1
    51    28    30    1
    52    28    29    1
    53    28    50    1
    54    29    30    1
    55    29    51    1
    56    29    52    1
    57    30    53    1
    58    30    54    1
    59    31    55    1
    60    31    56    1
@<TRIPOS>SUBSTRUCTURE
     1 ZINC000130059363        1 TEMP              0 ****  ****    0 ROOT


##########                                Name:    ZINC000863216249
##########                DOCK_Rotatable_Bonds:                   5
##########                         Heavy_Atoms:                  23
##########                    Molecular_Weight:             396.351
##########                DOCK_Rotatable_Bonds:                   5
##########                       Formal_Charge:         -0.00999944
##########                     HBond_Acceptors:                   5
##########                        HBond_Donors:                   1
##########                         Heavy_Atoms:                  23
##########                          Grid_Score:          -27.515448
##########                     Grid_vdw_energy:          -27.392431
##########                      Grid_es_energy:           -0.123016
##########           Internal_energy_repulsive:           26.376461

@<TRIPOS>MOLECULE
ZINC000863216249
 45 48 1 0 0
SMALL
USER_CHARGES


@<TRIPOS>ATOM
      1 S1         -5.7503    4.6249   55.0856 S.2     1  ZINC000863216249   -0.5900
      2 C2         -4.4693    4.0777   54.0904 C.2     1  ZINC000863216249    0.5600
      3 N3         -3.1918    4.3374   54.4326 N.am    1  ZINC000863216249   -0.6800
      4 C4         -2.8996    5.0931   55.6531 C.3     1  ZINC000863216249    0.1200
      5 C5         -2.5980    4.1208   56.7952 C.3     1  ZINC000863216249    0.0400
      6 N6         -1.1464    4.0527   57.0098 N.3     1  ZINC000863216249   -0.5300
      7 C7         -0.4582    3.5627   55.8065 C.3     1  ZINC000863216249    0.0000
      8 C8          1.0527    3.5641   56.0530 C.3     1  ZINC000863216249    0.0600
      9 O9          1.3435    2.7680   57.2050 O.3     1  ZINC000863216249   -0.3800
     10 C10         0.6901    3.2174   58.3952 C.3     1  ZINC000863216249    0.0600
     11 C11        -0.8245    3.2125   58.1724 C.3     1  ZINC000863216249    0.0200
     12 N12        -4.7381    3.3823   52.9675 N.am    1  ZINC000863216249   -0.5100
     13 C13        -6.0831    3.0389   52.4923 C.3     1  ZINC000863216249    0.1200
     14 C14        -5.8550    2.2579   51.1943 C.3     1  ZINC000863216249   -0.1100
     15 C15        -6.7459    1.0860   50.8011 C.3     1  ZINC000863216249   -0.1500
     16 C16        -6.7983    2.3932   50.0053 C.3     1  ZINC000863216249   -0.1500
     17 C17        -4.3592    2.2109   51.0185 C.ar    1  ZINC000863216249   -0.0700
     18 C18        -3.5724    1.6432   50.0350 C.ar    1  ZINC000863216249   -0.0800
     19 C19        -2.1952    1.7398   50.1035 C.ar    1  ZINC000863216249   -0.1000
     20 C20        -1.6039    2.4076   51.1610 C.ar    1  ZINC000863216249   -0.0700
     21 Br21        0.2799    2.5416   51.2567 Br      1  ZINC000863216249   -0.0400
     22 C22        -2.3850    2.9762   52.1459 C.ar    1  ZINC000863216249   -0.0900
     23 C23        -3.7761    2.8874   52.0810 C.ar    1  ZINC000863216249    0.1400
     24 H24        -2.4659    4.0239   53.8707 H       1  ZINC000863216249    0.4000
     25 H25        -2.0351    5.7353   55.4847 H       1  ZINC000863216249    0.0900
     26 H26        -3.7617    5.7062   55.9160 H       1  ZINC000863216249    0.1000
     27 H27        -3.0841    4.4689   57.7066 H       1  ZINC000863216249    0.0900
     28 H28        -2.9742    3.1306   56.5382 H       1  ZINC000863216249    0.0400
     29 H29        -0.7900    2.5483   55.5853 H       1  ZINC000863216249    0.0500
     30 H30        -0.6902    4.2141   54.9639 H       1  ZINC000863216249    0.1000
     31 H31         1.5635    3.1480   55.1847 H       1  ZINC000863216249    0.1000
     32 H32         1.3931    4.5858   56.2213 H       1  ZINC000863216249    0.0600
     33 H33         0.9388    2.5506   59.2208 H       1  ZINC000863216249    0.1000
     34 H34         1.0200    4.2290   58.6315 H       1  ZINC000863216249    0.0600
     35 H35        -1.3237    3.6082   59.0569 H       1  ZINC000863216249    0.0900
     36 H36        -1.1621    2.1925   57.9890 H       1  ZINC000863216249    0.0500
     37 H37        -6.5963    2.4156   53.2246 H       1  ZINC000863216249    0.0900
     38 H38        -6.6577    3.9437   52.2943 H       1  ZINC000863216249    0.0900
     39 H39        -6.2690    0.2274   50.3282 H       1  ZINC000863216249    0.1100
     40 H40        -7.5918    0.8567   51.4492 H       1  ZINC000863216249    0.1100
     41 H41        -7.6786    3.0238   50.1301 H       1  ZINC000863216249    0.1100
     42 H42        -6.3559    2.3944   49.0092 H       1  ZINC000863216249    0.1100
     43 H43        -4.0350    1.1217   49.2100 H       1  ZINC000863216249    0.1400
     44 H44        -1.5823    1.2948   49.3336 H       1  ZINC000863216249    0.1400
     45 H45        -1.9175    3.4960   52.9692 H       1  ZINC000863216249    0.1900
@<TRIPOS>BOND
     1     1     2    2
     2     2     3   am
     3     2    12   am
     4     3     4    1
     5     3    24    1
     6     4     5    1
     7     4    25    1
     8     4    26    1
     9     5     6    1
    10     5    27    1
    11     5    28    1
    12     6    11    1
    13     6     7    1
    14     7     8    1
    15     7    29    1
    16     7    30    1
    17     8     9    1
    18     8    31    1
    19     8    32    1
    20     9    10    1
    21    10    11    1
    22    10    33    1
    23    10    34    1
    24    11    35    1
    25    11    36    1
    26    12    23    1
    27    12    13    1
    28    13    14    1
    29    13    37    1
    30    13    38    1
    31    14    16    1
    32    14    15    1
    33    14    17    1
    34    15    16    1
    35    15    39    1
    36    15    40    1
    37    16    41    1
    38    16    42    1
    39    17    23   ar
    40    17    18   ar
    41    18    19   ar
    42    18    43    1
    43    19    20   ar
    44    19    44    1
    45    20    21    1
    46    20    22   ar
    47    22    23   ar
    48    22    45    1
@<TRIPOS>SUBSTRUCTURE
     1 ZINC000863216249        1 TEMP              0 ****  ****    0 ROOT


##########                                Name:    ZINC000422507946
##########                DOCK_Rotatable_Bonds:                   7
##########                         Heavy_Atoms:                  25
##########                    Molecular_Weight:             364.484
##########                DOCK_Rotatable_Bonds:                   7
##########                       Formal_Charge:          0.00999952
##########                     HBond_Acceptors:                   6
##########                        HBond_Donors:                   1
##########                         Heavy_Atoms:                  25
##########                          Grid_Score:          -27.492939
##########                     Grid_vdw_energy:          -25.102264
##########                      Grid_es_energy:           -2.390675
##########           Internal_energy_repulsive:           33.120632

@<TRIPOS>MOLECULE
ZINC000422507946
 50 52 1 0 0
SMALL
USER_CHARGES


@<TRIPOS>ATOM
      1 C1          0.6407    1.3073   48.7530 C.3     1  ZINC000422507946   -0.1400
      2 C2         -0.4387    2.3570   49.0244 C.3     1  ZINC000422507946   -0.0400
      3 H3         -0.3957    3.1476   48.2753 H       1  ZINC000422507946    0.1100
      4 C4         -0.2708    2.9476   50.4398 C.3     1  ZINC000422507946   -0.1400
      5 C5         -1.6600    3.2887   51.0062 C.3     1  ZINC000422507946    0.1400
      6 H6         -2.0655    4.1627   50.4967 H       1  ZINC000422507946    0.1100
      7 N7         -1.5640    3.5481   52.4449 N.am    1  ZINC000422507946   -0.6900
      8 C8         -2.3540    4.4787   53.0160 C.2     1  ZINC000422507946    0.5100
      9 O9         -3.1460    5.1006   52.3389 O.2     1  ZINC000422507946   -0.5000
     10 C10        -2.2548    4.7446   54.4833 C.2     1  ZINC000422507946    0.5100
     11 O11        -1.2301    5.1969   54.9500 O.2     1  ZINC000422507946   -0.5200
     12 N12        -3.3035    4.4818   55.2881 N.am    1  ZINC000422507946   -0.5700
     13 C13        -3.2062    4.7425   56.7265 C.3     1  ZINC000422507946    0.1400
     14 C14        -2.0057    4.0244   57.2871 C.ar    1  ZINC000422507946   -0.0800
     15 C15        -1.8353    2.6735   57.0491 C.ar    1  ZINC000422507946   -0.1100
     16 C16        -0.7344    2.0133   57.5627 C.ar    1  ZINC000422507946   -0.0900
     17 C17         0.1970    2.7036   58.3147 C.ar    1  ZINC000422507946   -0.1500
     18 C18         0.0275    4.0571   58.5534 C.ar    1  ZINC000422507946    0.1000
     19 F19         0.9375    4.7329   59.2885 F       1  ZINC000422507946   -0.1400
     20 C20        -1.0725    4.7181   58.0342 C.ar    1  ZINC000422507946   -0.1500
     21 C21        -4.5406    3.9357   54.7247 C.3     1  ZINC000422507946    0.1400
     22 C22        -5.2692    3.0792   55.7808 C.3     1  ZINC000422507946   -0.1200
     23 C23        -6.3020    4.0478   56.4087 C.3     1  ZINC000422507946   -0.1300
     24 C24        -6.7763    4.8784   55.1904 C.3     1  ZINC000422507946   -0.1200
     25 C25        -5.4989    5.0797   54.3494 C.3     1  ZINC000422507946   -0.1600
     26 C26        -2.5671    2.0568   50.7483 C.3     1  ZINC000422507946   -0.0900
     27 S27        -2.0963    1.5795   49.0373 S.3     1  ZINC000422507946   -0.2700
     28 H28         0.4908    0.8799   47.7615 H       1  ZINC000422507946    0.0700
     29 H29         1.6237    1.7757   48.8018 H       1  ZINC000422507946    0.0700
     30 H30         0.5767    0.5182   49.5022 H       1  ZINC000422507946    0.0700
     31 H31         0.2182    2.2177   51.0850 H       1  ZINC000422507946    0.0900
     32 H32         0.3358    3.8517   50.3893 H       1  ZINC000422507946    0.0900
     33 H33        -0.9317    3.0501   52.9863 H       1  ZINC000422507946    0.4100
     34 H34        -3.1000    5.8141   56.8952 H       1  ZINC000422507946    0.1100
     35 H35        -4.1082    4.3842   57.2226 H       1  ZINC000422507946    0.1000
     36 H36        -2.5630    2.1332   56.4617 H       1  ZINC000422507946    0.1400
     37 H37        -0.6026    0.9578   57.3764 H       1  ZINC000422507946    0.1300
     38 H38         1.0564    2.1875   58.7164 H       1  ZINC000422507946    0.1400
     39 H39        -1.2054    5.7738   58.2195 H       1  ZINC000422507946    0.1400
     40 H40        -4.3157    3.3332   53.8447 H       1  ZINC000422507946    0.1100
     41 H41        -5.7745    2.2376   55.3069 H       1  ZINC000422507946    0.0800
     42 H42        -4.5674    2.7274   56.5369 H       1  ZINC000422507946    0.0600
     43 H43        -7.1333    3.4952   56.8466 H       1  ZINC000422507946    0.0700
     44 H44        -5.8282    4.6886   57.1523 H       1  ZINC000422507946    0.0600
     45 H45        -7.5249    4.3275   54.6211 H       1  ZINC000422507946    0.0700
     46 H46        -7.1743    5.8396   55.5157 H       1  ZINC000422507946    0.0700
     47 H47        -5.0434    6.0412   54.5864 H       1  ZINC000422507946    0.0900
     48 H48        -5.7395    5.0319   53.2874 H       1  ZINC000422507946    0.0800
     49 H49        -2.3420    1.2552   51.4518 H       1  ZINC000422507946    0.1000
     50 H50        -3.6203    2.3333   50.7974 H       1  ZINC000422507946    0.1100
@<TRIPOS>BOND
     1     1     2    1
     2     1    28    1
     3     1    29    1
     4     1    30    1
     5     2     3    1
     6     2    27    1
     7     2     4    1
     8     4     5    1
     9     4    31    1
    10     4    32    1
    11     5     6    1
    12     5     7    1
    13     5    26    1
    14     7     8   am
    15     7    33    1
    16     8     9    2
    17     8    10    1
    18    10    11    2
    19    10    12   am
    20    12    13    1
    21    12    21    1
    22    13    14    1
    23    13    34    1
    24    13    35    1
    25    14    20   ar
    26    14    15   ar
    27    15    16   ar
    28    15    36    1
    29    16    17   ar
    30    16    37    1
    31    17    18   ar
    32    17    38    1
    33    18    19    1
    34    18    20   ar
    35    20    39    1
    36    21    25    1
    37    21    22    1
    38    21    40    1
    39    22    23    1
    40    22    41    1
    41    22    42    1
    42    23    24    1
    43    23    43    1
    44    23    44    1
    45    24    25    1
    46    24    45    1
    47    24    46    1
    48    25    47    1
    49    25    48    1
    50    26    27    1
    51    26    49    1
    52    26    50    1
@<TRIPOS>SUBSTRUCTURE
     1 ZINC000422507946        1 TEMP              0 ****  ****    0 ROOT


##########                                Name:    ZINC001023148918
##########                DOCK_Rotatable_Bonds:                   6
##########                         Heavy_Atoms:                  25
##########                    Molecular_Weight:             348.402
##########                DOCK_Rotatable_Bonds:                   6
##########                       Formal_Charge:           0.0199999
##########                     HBond_Acceptors:                   8
##########                        HBond_Donors:                   2
##########                         Heavy_Atoms:                  25
##########                          Grid_Score:          -27.479420
##########                     Grid_vdw_energy:          -24.276468
##########                      Grid_es_energy:           -3.202951
##########           Internal_energy_repulsive:            6.999533

@<TRIPOS>MOLECULE
ZINC001023148918
 49 52 1 0 0
SMALL
USER_CHARGES


@<TRIPOS>ATOM
      1 C1         -8.8331    2.4717   54.9638 C.3     1  ZINC001023148918   -0.0700
      2 C2         -7.8667    2.5630   53.8110 C.2     1  ZINC001023148918    0.0200
      3 N3         -8.0182    2.0132   52.6333 N.2     1  ZINC001023148918   -0.2700
      4 N4         -7.0185    2.2775   51.8714 N.pl3   1  ZINC001023148918   -0.2500
      5 C5         -6.8662    1.8185   50.4886 C.3     1  ZINC001023148918    0.0800
      6 C6         -6.1189    3.0520   52.5475 C.2     1  ZINC001023148918   -0.0400
      7 C7         -4.8412    3.5726   52.0356 C.2     1  ZINC001023148918    0.6000
      8 O8         -4.8223    4.2569   51.0302 O.2     1  ZINC001023148918   -0.5300
      9 N9         -3.6919    3.2913   52.6810 N.am    1  ZINC001023148918   -0.7000
     10 C10        -2.4199    3.8096   52.1713 C.3     1  ZINC001023148918    0.1500
     11 H11        -2.4924    4.8759   51.9577 H       1  ZINC001023148918    0.1200
     12 C12        -1.9615    3.0221   50.9184 C.3     1  ZINC001023148918    0.1000
     13 N13        -0.4969    3.1870   50.8842 N.am    1  ZINC001023148918   -0.6200
     14 C14         0.2790    3.0893   49.7865 C.2     1  ZINC001023148918    0.5400
     15 O15         1.4784    3.2458   49.8757 O.2     1  ZINC001023148918   -0.5200
     16 C16        -0.3438    2.7854   48.4483 C.3     1  ZINC001023148918   -0.1400
     17 H17        -1.1975    3.4377   48.2642 H       1  ZINC001023148918    0.1100
     18 C18        -0.7627    1.2956   48.3631 C.3     1  ZINC001023148918   -0.1400
     19 C19         0.1043    0.7603   47.1842 C.3     1  ZINC001023148918    0.0600
     20 H20         0.2624   -0.3181   47.1724 H       1  ZINC001023148918    0.1300
     21 C21        -0.5395    1.3553   45.8960 C.3     1  ZINC001023148918   -0.1500
     22 C22        -0.1345    2.8498   45.9689 C.3     1  ZINC001023148918   -0.1500
     23 C23         0.7086    2.9182   47.3068 C.3     1  ZINC001023148918    0.0900
     24 H24         1.3981    3.7590   47.3821 H       1  ZINC001023148918    0.1400
     25 O25         1.3125    1.5777   47.3241 O.3     1  ZINC001023148918   -0.3600
     26 C26        -0.0231    3.4764   52.2455 C.3     1  ZINC001023148918    0.0700
     27 C27        -1.2632    3.5185   53.1637 C.3     1  ZINC001023148918    0.0900
     28 H28        -1.4112    2.5575   53.6563 H       1  ZINC001023148918    0.0800
     29 O29        -1.1428    4.5657   54.1284 O.3     1  ZINC001023148918   -0.5500
     30 C30        -6.6531    3.2545   53.8081 C.2     1  ZINC001023148918   -0.1800
     31 H31        -9.5474    3.2929   54.9051 H       1  ZINC001023148918    0.0800
     32 H32        -9.3664    1.5222   54.9165 H       1  ZINC001023148918    0.0700
     33 H33        -8.2844    2.5339   55.9036 H       1  ZINC001023148918    0.0800
     34 H34        -7.3670    2.5158   49.8170 H       1  ZINC001023148918    0.0900
     35 H35        -5.8068    1.7690   50.2368 H       1  ZINC001023148918    0.1100
     36 H36        -7.3113    0.8292   50.3830 H       1  ZINC001023148918    0.0900
     37 H37        -3.7070    2.7456   53.4827 H       1  ZINC001023148918    0.4100
     38 H38        -2.2225    1.9684   51.0161 H       1  ZINC001023148918    0.0800
     39 H39        -2.4119    3.4437   50.0197 H       1  ZINC001023148918    0.0900
     40 H40        -0.5210    0.7729   49.2885 H       1  ZINC001023148918    0.0800
     41 H41        -1.8245    1.2055   48.1335 H       1  ZINC001023148918    0.0900
     42 H42        -0.1241    0.8857   45.0045 H       1  ZINC001023148918    0.0800
     43 H43        -1.6238    1.2475   45.9211 H       1  ZINC001023148918    0.0800
     44 H44         0.4827    3.1248   45.1136 H       1  ZINC001023148918    0.0800
     45 H45        -1.0171    3.4864   46.0303 H       1  ZINC001023148918    0.0800
     46 H46         0.6569    2.6911   52.5761 H       1  ZINC001023148918    0.0800
     47 H47         0.4842    4.4409   52.2643 H       1  ZINC001023148918    0.0900
     48 H48        -0.6159    4.3277   54.9036 H       1  ZINC001023148918    0.3900
     49 H49        -6.2206    3.8213   54.6192 H       1  ZINC001023148918    0.1600
@<TRIPOS>BOND
     1     1     2    1
     2     1    31    1
     3     1    32    1
     4     1    33    1
     5     2    30    1
     6     2     3    2
     7     3     4    1
     8     4     5    1
     9     4     6    1
    10     5    34    1
    11     5    35    1
    12     5    36    1
    13     6     7    1
    14     6    30    2
    15     7     8    2
    16     7     9   am
    17     9    10    1
    18     9    37    1
    19    10    11    1
    20    10    27    1
    21    10    12    1
    22    12    13    1
    23    12    38    1
    24    12    39    1
    25    13    14   am
    26    13    26    1
    27    14    15    2
    28    14    16    1
    29    16    17    1
    30    16    23    1
    31    16    18    1
    32    18    19    1
    33    18    40    1
    34    18    41    1
    35    19    20    1
    36    19    25    1
    37    19    21    1
    38    21    22    1
    39    21    42    1
    40    21    43    1
    41    22    23    1
    42    22    44    1
    43    22    45    1
    44    23    24    1
    45    23    25    1
    46    26    27    1
    47    26    46    1
    48    26    47    1
    49    27    28    1
    50    27    29    1
    51    29    48    1
    52    30    49    1
@<TRIPOS>SUBSTRUCTURE
     1 ZINC001023148918        1 TEMP              0 ****  ****    0 ROOT


##########                                Name:    ZINC000013551438
##########                DOCK_Rotatable_Bonds:                   5
##########                         Heavy_Atoms:                  27
##########                    Molecular_Weight:             377.467
##########                DOCK_Rotatable_Bonds:                   5
##########                       Formal_Charge:          -0.0300005
##########                     HBond_Acceptors:                   6
##########                        HBond_Donors:                   1
##########                         Heavy_Atoms:                  27
##########                          Grid_Score:          -27.465588
##########                     Grid_vdw_energy:          -26.979580
##########                      Grid_es_energy:           -0.486008
##########           Internal_energy_repulsive:           14.567772

@<TRIPOS>MOLECULE
ZINC000013551438
 46 49 1 0 0
SMALL
USER_CHARGES


@<TRIPOS>ATOM
      1 C1        -17.0177   -3.1973   58.9631 C.3     1  <0>         0.0300
      2 O2        -16.2389   -3.7475   57.8988 O.3     1  <0>        -0.3200
      3 C3        -15.5371   -2.8717   57.1308 C.ar    1  <0>         0.1000
      4 C4        -16.1532   -2.2504   56.0481 C.ar    1  <0>        -0.1800
      5 C5        -15.4563   -1.3611   55.2605 C.ar    1  <0>        -0.0900
      6 C6        -14.1245   -1.0765   55.5440 C.ar    1  <0>         0.0700
      7 C7        -13.5009   -1.7024   56.6368 C.ar    1  <0>        -0.0400
      8 C8        -14.2170   -2.5974   57.4312 C.ar    1  <0>        -0.1100
      9 C9        -12.1195   -1.1962   56.6625 C.2     1  <0>        -0.1200
     10 C10       -11.0608   -1.5622   57.6352 C.2     1  <0>         0.1700
     11 C11       -10.0144   -2.3472   57.3169 C.2     1  <0>        -0.3000
     12 S12        -9.0097   -2.5248   58.7529 S.3     1  <0>         0.2500
     13 C13       -10.0810   -1.5345   59.6431 C.2     1  <0>         0.2400
     14 N14        -9.9206   -1.1957   60.9800 N.am    1  <0>        -0.6200
     15 C15       -10.7158   -0.2619   61.5387 C.2     1  <0>         0.5600
     16 O16       -11.5745    0.2827   60.8724 O.2     1  <0>        -0.5000
     17 C17       -10.5439    0.0999   62.9613 C.ar    1  <0>        -0.1400
     18 C18        -9.5043   -0.4595   63.7063 C.ar    1  <0>        -0.0800
     19 C19        -9.3491   -0.1171   65.0336 C.ar    1  <0>        -0.1300
     20 C20       -10.2211    0.7786   65.6266 C.ar    1  <0>        -0.0800
     21 C21       -11.2540    1.3364   64.8941 C.ar    1  <0>        -0.1300
     22 C22       -11.4169    1.0070   63.5644 C.ar    1  <0>        -0.0500
     23 N23       -11.0600   -1.1397   58.8931 N.2     1  <0>        -0.5000
     24 C24       -12.0009   -0.3323   55.6264 C.2     1  <0>         0.1300
     25 C25       -10.7487    0.4263   55.2688 C.3     1  <0>        -0.0900
     26 N26       -13.1887   -0.2529   54.9527 N.pl3   1  <0>        -0.4800
     27 C27       -13.4317    0.5839   53.7750 C.3     1  <0>         0.0800
     28 H28       -17.7571   -2.5088   58.5540 H       1  <0>         0.0500
     29 H29       -17.5256   -4.0019   59.4951 H       1  <0>         0.1000
     30 H30       -16.3646   -2.6618   59.6521 H       1  <0>         0.0500
     31 H31       -17.1869   -2.4681   55.8234 H       1  <0>         0.1300
     32 H32       -15.9438   -0.8849   54.4227 H       1  <0>         0.1200
     33 H33       -13.7397   -3.0795   58.2715 H       1  <0>         0.1300
     34 H34        -9.8243   -2.7903   56.3506 H       1  <0>         0.1800
     35 H35        -9.2362   -1.6312   61.5119 H       1  <0>         0.4200
     36 H36        -8.8231   -1.1590   63.2446 H       1  <0>         0.1300
     37 H37        -8.5455   -0.5494   65.6112 H       1  <0>         0.1300
     38 H38       -10.0952    1.0433   66.6661 H       1  <0>         0.1300
     39 H39       -11.9314    2.0346   65.3632 H       1  <0>         0.1300
     40 H40       -12.2233    1.4433   62.9937 H       1  <0>         0.1400
     41 H41       -10.1975   -0.1218   54.5047 H       1  <0>         0.0800
     42 H42       -11.0173    1.4112   54.8869 H       1  <0>         0.0700
     43 H43       -10.1259    0.5382   56.1563 H       1  <0>         0.0800
     44 H44       -13.1978    0.0184   52.8730 H       1  <0>         0.0700
     45 H45       -14.4788    0.8856   53.7533 H       1  <0>         0.0800
     46 H46       -12.7990    1.4703   53.8223 H       1  <0>         0.0800
@<TRIPOS>BOND
     1     1     2    1
     2     1    28    1
     3     1    29    1
     4     1    30    1
     5     2     3    1
     6     3     8   ar
     7     3     4   ar
     8     4     5   ar
     9     4    31    1
    10     5     6   ar
    11     5    32    1
    12     6    26    1
    13     6     7   ar
    14     7     8   ar
    15     7     9    1
    16     8    33    1
    17     9    10    1
    18     9    24    2
    19    10    23    1
    20    10    11    2
    21    11    12    1
    22    11    34    1
    23    12    13    1
    24    13    14    1
    25    13    23    2
    26    14    15   am
    27    14    35    1
    28    15    16    2
    29    15    17    1
    30    17    22   ar
    31    17    18   ar
    32    18    19   ar
    33    18    36    1
    34    19    20   ar
    35    19    37    1
    36    20    21   ar
    37    20    38    1
    38    21    22   ar
    39    21    39    1
    40    22    40    1
    41    24    25    1
    42    24    26    1
    43    25    41    1
    44    25    42    1
    45    25    43    1
    46    26    27    1
    47    27    44    1
    48    27    45    1
    49    27    46    1
@<TRIPOS>SUBSTRUCTURE
     1 <0>         1 TEMP              0 ****  ****    0 ROOT


##########                                Name:    ZINC001318556452
##########                DOCK_Rotatable_Bonds:                   4
##########                         Heavy_Atoms:                  26
##########                    Molecular_Weight:             368.456
##########                DOCK_Rotatable_Bonds:                   4
##########                       Formal_Charge:          -0.0200005
##########                     HBond_Acceptors:                   6
##########                        HBond_Donors:                   1
##########                         Heavy_Atoms:                  26
##########                          Grid_Score:          -27.425859
##########                     Grid_vdw_energy:          -27.011257
##########                      Grid_es_energy:           -0.414602
##########           Internal_energy_repulsive:           26.815453

@<TRIPOS>MOLECULE
ZINC001318556452
 46 48 1 0 0
SMALL
USER_CHARGES


@<TRIPOS>ATOM
      1 C1         -2.9836    1.2329   50.1054 C.3     1  ZINC001318556452   -0.1300
      2 C2         -2.9553    2.5371   50.8598 C.ar    1  ZINC001318556452   -0.1000
      3 C3         -3.9432    2.8247   51.7805 C.ar    1  ZINC001318556452   -0.0500
      4 C4         -5.0507    1.8336   52.0304 C.3     1  ZINC001318556452   -0.4100
      5 S5         -6.4969    2.2779   51.0297 S.o     1  ZINC001318556452    1.2500
      6 C6         -7.7016    0.9918   51.4601 C.3     1  ZINC001318556452   -0.4900
      7 O7         -6.1681    2.1766   49.6509 O.2     1  ZINC001318556452   -0.8400
      8 C8         -3.9174    4.0211   52.4740 C.ar    1  ZINC001318556452   -0.1200
      9 C9         -2.9034    4.9334   52.2473 C.ar    1  ZINC001318556452   -0.1000
     10 C10        -1.9125    4.6524   51.3271 C.ar    1  ZINC001318556452   -0.1200
     11 C11        -1.9318    3.4491   50.6338 C.ar    1  ZINC001318556452    0.1400
     12 N12        -0.9302    3.1614   49.7020 N.am    1  ZINC001318556452   -0.6600
     13 C13        -0.1024    2.1170   49.9033 C.2     1  ZINC001318556452    0.5600
     14 O14        -0.2267    1.4256   50.8947 O.2     1  ZINC001318556452   -0.5000
     15 C15         0.9599    1.8118   48.9151 C.2     1  ZINC001318556452   -0.0300
     16 C16         2.2402    1.5634   49.3207 C.2     1  ZINC001318556452   -0.1600
     17 C17         3.2648    1.2651   48.3229 C.2     1  ZINC001318556452    0.5300
     18 O18         4.4070    1.0434   48.6839 O.2     1  ZINC001318556452   -0.5200
     19 N19         2.9662    1.2312   47.0126 N.am    1  ZINC001318556452   -0.5200
     20 C20         4.0220    0.9272   46.0436 C.3     1  ZINC001318556452    0.0600
     21 C21         1.6865    1.4761   46.5625 C.ar    1  ZINC001318556452    0.1800
     22 C22         1.3980    1.4361   45.2009 C.ar    1  ZINC001318556452   -0.1700
     23 C23         0.1146    1.6829   44.7646 C.ar    1  ZINC001318556452   -0.0600
     24 C24        -0.8968    1.9718   45.6703 C.ar    1  ZINC001318556452   -0.1500
     25 C25        -0.6363    2.0164   47.0107 C.ar    1  ZINC001318556452   -0.0600
     26 C26         0.6571    1.7638   47.4764 C.ar    1  ZINC001318556452   -0.1100
     27 H27        -2.4333    0.4770   50.6657 H       1  ZINC001318556452    0.0800
     28 H28        -4.0167    0.9097   49.9772 H       1  ZINC001318556452    0.0800
     29 H29        -2.5215    1.3685   49.1276 H       1  ZINC001318556452    0.0700
     30 H30        -4.7124    0.8342   51.7565 H       1  ZINC001318556452    0.1000
     31 H31        -5.3208    1.8492   53.0862 H       1  ZINC001318556452    0.1300
     32 H32        -7.9055    1.0284   52.5302 H       1  ZINC001318556452    0.1100
     33 H33        -8.6263    1.1608   50.9081 H       1  ZINC001318556452    0.1100
     34 H34        -7.2971    0.0135   51.2005 H       1  ZINC001318556452    0.0800
     35 H35        -4.6912    4.2435   53.1938 H       1  ZINC001318556452    0.1200
     36 H36        -2.8864    5.8668   52.7903 H       1  ZINC001318556452    0.1300
     37 H37        -1.1210    5.3656   51.1503 H       1  ZINC001318556452    0.1500
     38 H38        -0.8310    3.7133   48.9105 H       1  ZINC001318556452    0.4100
     39 H39         2.4931    1.5876   50.3704 H       1  ZINC001318556452    0.1600
     40 H40         4.9619    0.7619   46.5701 H       1  ZINC001318556452    0.1000
     41 H41         3.7554    0.0298   45.4853 H       1  ZINC001318556452    0.0800
     42 H42         4.1341    1.7640   45.3541 H       1  ZINC001318556452    0.0800
     43 H43         2.1784    1.2124   44.4885 H       1  ZINC001318556452    0.1400
     44 H44        -0.1065    1.6516   43.7079 H       1  ZINC001318556452    0.1300
     45 H45        -1.8977    2.1634   45.3124 H       1  ZINC001318556452    0.1300
     46 H46        -1.4288    2.2420   47.7090 H       1  ZINC001318556452    0.1700
@<TRIPOS>BOND
     1     1     2    1
     2     1    27    1
     3     1    28    1
     4     1    29    1
     5     2    11   ar
     6     2     3   ar
     7     3     4    1
     8     3     8   ar
     9     4     5    1
    10     4    30    1
    11     4    31    1
    12     5     6    1
    13     5     7    2
    14     6    32    1
    15     6    33    1
    16     6    34    1
    17     8     9   ar
    18     8    35    1
    19     9    10   ar
    20     9    36    1
    21    10    11   ar
    22    10    37    1
    23    11    12    1
    24    12    13   am
    25    12    38    1
    26    13    14    2
    27    13    15    1
    28    15    26    1
    29    15    16    2
    30    16    17    1
    31    16    39    1
    32    17    18    2
    33    17    19   am
    34    19    20    1
    35    19    21    1
    36    20    40    1
    37    20    41    1
    38    20    42    1
    39    21    26   ar
    40    21    22   ar
    41    22    23   ar
    42    22    43    1
    43    23    24   ar
    44    23    44    1
    45    24    25   ar
    46    24    45    1
    47    25    26   ar
    48    25    46    1
@<TRIPOS>SUBSTRUCTURE
     1 ZINC001318556452        1 TEMP              0 ****  ****    0 ROOT


##########                                Name:    ZINC000477669194
##########                DOCK_Rotatable_Bonds:                   6
##########                         Heavy_Atoms:                  26
##########                    Molecular_Weight:             387.483
##########                DOCK_Rotatable_Bonds:                   6
##########                       Formal_Charge:         4.47035e-07
##########                     HBond_Acceptors:                   8
##########                        HBond_Donors:                   2
##########                         Heavy_Atoms:                  26
##########                          Grid_Score:          -27.412649
##########                     Grid_vdw_energy:          -26.757124
##########                      Grid_es_energy:           -0.655526
##########           Internal_energy_repulsive:           14.372257

@<TRIPOS>MOLECULE
ZINC000477669194
 43 45 1 0 0
SMALL
USER_CHARGES


@<TRIPOS>ATOM
      1 C1         -3.0019    4.4704   54.6352 C.3     1  ZINC000477669194   -0.0800
      2 C2         -4.3887    3.9676   54.9438 C.2     1  ZINC000477669194    0.0500
      3 N3         -5.1657    3.3887   54.0951 N.2     1  ZINC000477669194   -0.4900
      4 C4         -6.3572    3.0053   54.5306 C.2     1  ZINC000477669194    0.1200
      5 C5         -7.3529    2.3276   53.6653 C.ar    1  ZINC000477669194   -0.0600
      6 C6         -8.7096    2.4020   53.9694 C.ar    1  ZINC000477669194   -0.0800
      7 C7         -9.6329    1.7693   53.1607 C.ar    1  ZINC000477669194   -0.1400
      8 C8         -9.2158    1.0608   52.0480 C.ar    1  ZINC000477669194   -0.0900
      9 C9         -7.8717    0.9795   51.7361 C.ar    1  ZINC000477669194   -0.1300
     10 C10        -6.9337    1.6150   52.5356 C.ar    1  ZINC000477669194    0.1800
     11 N11        -5.5742    1.5343   52.2215 N.am    1  ZINC000477669194   -0.6500
     12 C12        -5.0953    2.1683   51.1329 C.2     1  ZINC000477669194    0.5600
     13 O13        -5.8461    2.8106   50.4239 O.2     1  ZINC000477669194   -0.5200
     14 C14        -3.6606    2.0832   50.8014 C.ar    1  ZINC000477669194   -0.1500
     15 C15        -3.1393    0.9128   50.2419 C.ar    1  ZINC000477669194   -0.0600
     16 C16        -1.8004    0.8366   49.9333 C.ar    1  ZINC000477669194   -0.1400
     17 C17        -0.9653    1.9234   50.1776 C.ar    1  ZINC000477669194    0.1700
     18 N18         0.3872    1.8432   49.8646 N.am    1  ZINC000477669194   -1.0600
     19 S19         0.8839    1.9996   48.2926 S.o2    1  ZINC000477669194    2.6100
     20 C20         0.3189    3.6520   47.8016 C.3     1  ZINC000477669194   -0.6700
     21 O21         2.3023    1.9595   48.3675 O.2     1  ZINC000477669194   -0.9400
     22 O22         0.1585    0.9967   47.5944 O.2     1  ZINC000477669194   -0.9500
     23 C23        -1.4815    3.0904   50.7342 C.ar    1  ZINC000477669194   -0.1600
     24 C24        -2.8203    3.1746   51.0406 C.ar    1  ZINC000477669194   -0.0300
     25 C25        -6.5842    3.2854   55.8300 C.2     1  ZINC000477669194   -0.2600
     26 S26        -5.1478    4.0788   56.4711 S.3     1  ZINC000477669194    0.1500
     27 H27        -2.5673    4.9114   55.5322 H       1  ZINC000477669194    0.0800
     28 H28        -2.3804    3.6398   54.3007 H       1  ZINC000477669194    0.0900
     29 H29        -3.0552    5.2238   53.8492 H       1  ZINC000477669194    0.0900
     30 H30        -9.0395    2.9537   54.8373 H       1  ZINC000477669194    0.1300
     31 H31       -10.6849    1.8275   53.3980 H       1  ZINC000477669194    0.1300
     32 H32        -9.9439    0.5686   51.4203 H       1  ZINC000477669194    0.1300
     33 H33        -7.5522    0.4244   50.8666 H       1  ZINC000477669194    0.1500
     34 H34        -4.9754    1.0220   52.7870 H       1  ZINC000477669194    0.4200
     35 H35        -3.7865    0.0693   50.0524 H       1  ZINC000477669194    0.1300
     36 H36        -1.3970   -0.0673   49.5014 H       1  ZINC000477669194    0.1400
     37 H37         1.0396    1.6956   50.5670 H       1  ZINC000477669194    0.4300
     38 H38         0.8437    4.4050   48.3895 H       1  ZINC000477669194    0.1300
     39 H39         0.5269    3.8076   46.7430 H       1  ZINC000477669194    0.1400
     40 H40        -0.7536    3.7364   47.9774 H       1  ZINC000477669194    0.1300
     41 H41        -0.8311    3.9319   50.9222 H       1  ZINC000477669194    0.1700
     42 H42        -3.2202    4.0803   51.4721 H       1  ZINC000477669194    0.1500
     43 H43        -7.4852    3.0597   56.3810 H       1  ZINC000477669194    0.1800
@<TRIPOS>BOND
     1     1     2    1
     2     1    27    1
     3     1    28    1
     4     1    29    1
     5     2    26    1
     6     2     3    2
     7     3     4    1
     8     4     5    1
     9     4    25    2
    10     5    10   ar
    11     5     6   ar
    12     6     7   ar
    13     6    30    1
    14     7     8   ar
    15     7    31    1
    16     8     9   ar
    17     8    32    1
    18     9    10   ar
    19     9    33    1
    20    10    11    1
    21    11    12   am
    22    11    34    1
    23    12    13    2
    24    12    14    1
    25    14    24   ar
    26    14    15   ar
    27    15    16   ar
    28    15    35    1
    29    16    17   ar
    30    16    36    1
    31    17    18    1
    32    17    23   ar
    33    18    19   am
    34    18    37    1
    35    19    20    1
    36    19    21    2
    37    19    22    2
    38    20    38    1
    39    20    39    1
    40    20    40    1
    41    23    24   ar
    42    23    41    1
    43    24    42    1
    44    25    26    1
    45    25    43    1
@<TRIPOS>SUBSTRUCTURE
     1 ZINC000477669194        1 TEMP              0 ****  ****    0 ROOT


##########                                Name:    ZINC000341804698
##########                DOCK_Rotatable_Bonds:                   7
##########                         Heavy_Atoms:                  24
##########                    Molecular_Weight:             342.318
##########                DOCK_Rotatable_Bonds:                   7
##########                       Formal_Charge:                0.02
##########                     HBond_Acceptors:                   8
##########                        HBond_Donors:                   0
##########                         Heavy_Atoms:                  24
##########                          Grid_Score:          -27.337770
##########                     Grid_vdw_energy:          -27.595724
##########                      Grid_es_energy:            0.257953
##########           Internal_energy_repulsive:           17.150162

@<TRIPOS>MOLECULE
ZINC000341804698
 41 42 1 0 0
SMALL
USER_CHARGES


@<TRIPOS>ATOM
      1 C1          2.6542    3.6300   42.4809 C.3     1  ZINC000341804698    0.0300
      2 O2          1.5039    2.9340   42.9651 O.3     1  ZINC000341804698   -0.3900
      3 C3          0.8912    3.5444   44.1026 C.3     1  ZINC000341804698    0.0700
      4 C4          0.4689    2.4612   45.0971 C.3     1  ZINC000341804698    0.0400
      5 C5         -0.0823    1.3100   44.3636 C.1     1  ZINC000341804698    0.2200
      6 N6         -0.5077    0.4218   43.7976 N.1     1  ZINC000341804698   -0.4200
      7 C7          1.6857    2.0126   45.9096 C.3     1  ZINC000341804698   -0.1200
      8 C8          1.2662    0.9039   46.8800 C.3     1  ZINC000341804698    0.1100
      9 N9          0.1424    1.3877   47.6935 N.am    1  ZINC000341804698   -0.6000
     10 C10         0.1981    1.3395   49.0392 C.2     1  ZINC000341804698    0.5700
     11 O11         1.1846    0.8925   49.5911 O.2     1  ZINC000341804698   -0.5200
     12 C12        -0.9408    1.8301   49.8443 C.ar    1  ZINC000341804698   -0.0900
     13 C13        -0.9187    3.1206   50.3754 C.ar    1  ZINC000341804698   -0.1100
     14 C14        -1.9834    3.5753   51.1265 C.ar    1  ZINC000341804698   -0.0800
     15 C15        -3.0733    2.7563   51.3553 C.ar    1  ZINC000341804698   -0.1700
     16 C16        -3.1042    1.4707   50.8315 C.ar    1  ZINC000341804698    0.1100
     17 O17        -4.1781    0.6697   51.0599 O.3     1  ZINC000341804698   -0.3100
     18 C18        -5.4648    1.2914   51.0507 C.3     1  ZINC000341804698    0.6000
     19 F19        -5.5051    2.2652   50.0471 F       1  ZINC000341804698   -0.1600
     20 F20        -6.4472    0.3265   50.8040 F       1  ZINC000341804698   -0.1300
     21 F21        -5.7017    1.8913   52.2921 F       1  ZINC000341804698   -0.1600
     22 C22        -2.0442    1.0066   50.0713 C.ar    1  ZINC000341804698   -0.0700
     23 C23        -1.0429    1.9255   47.0121 C.3     1  ZINC000341804698    0.0900
     24 C24        -0.5976    3.0228   46.0403 C.3     1  ZINC000341804698   -0.1200
     25 H25         2.3711    4.6414   42.1897 H       1  ZINC000341804698    0.0400
     26 H26         3.4084    3.6759   43.2665 H       1  ZINC000341804698    0.0500
     27 H27         3.0607    3.1035   41.6174 H       1  ZINC000341804698    0.0900
     28 H28         1.6022    4.2188   44.5800 H       1  ZINC000341804698    0.0700
     29 H29         0.0138    4.1075   43.7843 H       1  ZINC000341804698    0.0600
     30 H30         2.4540    1.6343   45.2353 H       1  ZINC000341804698    0.1000
     31 H31         2.0795    2.8589   46.4724 H       1  ZINC000341804698    0.0900
     32 H32         0.9572    0.0231   46.3170 H       1  ZINC000341804698    0.0700
     33 H33         2.1043    0.6498   47.5289 H       1  ZINC000341804698    0.1100
     34 H34        -0.0686    3.7629   50.1988 H       1  ZINC000341804698    0.1400
     35 H35        -1.9649    4.5740   51.5371 H       1  ZINC000341804698    0.1400
     36 H36        -3.9037    3.1175   51.9438 H       1  ZINC000341804698    0.1400
     37 H37        -2.0670    0.0071   49.6629 H       1  ZINC000341804698    0.1500
     38 H38        -1.5402    1.1281   46.4599 H       1  ZINC000341804698    0.0800
     39 H39        -1.7284    2.3456   47.7481 H       1  ZINC000341804698    0.1100
     40 H40        -0.1822    3.8596   46.6018 H       1  ZINC000341804698    0.1000
     41 H41        -1.4544    3.3636   45.4589 H       1  ZINC000341804698    0.0900
@<TRIPOS>BOND
     1     1     2    1
     2     1    25    1
     3     1    26    1
     4     1    27    1
     5     2     3    1
     6     3     4    1
     7     3    28    1
     8     3    29    1
     9     4    24    1
    10     4     5    1
    11     4     7    1
    12     5     6    3
    13     7     8    1
    14     7    30    1
    15     7    31    1
    16     8     9    1
    17     8    32    1
    18     8    33    1
    19     9    10   am
    20     9    23    1
    21    10    11    2
    22    10    12    1
    23    12    22   ar
    24    12    13   ar
    25    13    14   ar
    26    13    34    1
    27    14    15   ar
    28    14    35    1
    29    15    16   ar
    30    15    36    1
    31    16    17    1
    32    16    22   ar
    33    17    18    1
    34    18    19    1
    35    18    20    1
    36    18    21    1
    37    22    37    1
    38    23    24    1
    39    23    38    1
    40    23    39    1
    41    24    40    1
    42    24    41    1
@<TRIPOS>SUBSTRUCTURE
     1 ZINC000341804698        1 TEMP              0 ****  ****    0 ROOT


##########                                Name:    ZINC000443933644
##########                DOCK_Rotatable_Bonds:                   8
##########                         Heavy_Atoms:                  27
##########                    Molecular_Weight:             402.438
##########                DOCK_Rotatable_Bonds:                   8
##########                       Formal_Charge:          0.00999922
##########                     HBond_Acceptors:                   9
##########                        HBond_Donors:                   2
##########                         Heavy_Atoms:                  27
##########                          Grid_Score:          -27.297665
##########                     Grid_vdw_energy:          -26.657862
##########                      Grid_es_energy:           -0.639802
##########           Internal_energy_repulsive:           40.114002

@<TRIPOS>MOLECULE
ZINC000443933644
 48 49 1 0 0
SMALL
USER_CHARGES


@<TRIPOS>ATOM
      1 C1          2.9868    4.4910   45.7168 C.3     1  ZINC000443933644   -0.1500
      2 C2          2.3237    3.6083   46.7761 C.3     1  ZINC000443933644   -0.1400
      3 C3          0.9032    3.2562   46.3300 C.3     1  ZINC000443933644   -0.1000
      4 H4          0.9249    2.8899   45.3036 H       1  ZINC000443933644    0.1000
      5 C5          0.0203    4.5033   46.4080 C.3     1  ZINC000443933644   -0.1700
      6 C6          0.3351    2.1710   47.2467 C.3     1  ZINC000443933644    0.1200
      7 H7         -0.6758    2.4438   47.5498 H       1  ZINC000443933644    0.1300
      8 N8          1.1829    2.0421   48.4346 N.am    1  ZINC000443933644   -1.1100
      9 S9          0.8425    2.9237   49.7944 S.o2    1  ZINC000443933644    2.6900
     10 O10         1.7367    2.4695   50.8013 O.2     1  ZINC000443933644   -0.9400
     11 O11         0.7607    4.2811   49.3825 O.2     1  ZINC000443933644   -0.9400
     12 C12        -0.7750    2.4653   50.3220 C.ar    1  ZINC000443933644   -0.7000
     13 C13        -1.4970    3.3056   51.1862 C.ar    1  ZINC000443933644    0.0500
     14 C14        -0.9537    4.5182   51.6451 C.ar    1  ZINC000443933644   -0.1400
     15 C15        -1.6808    5.3084   52.4813 C.ar    1  ZINC000443933644   -0.0800
     16 C16        -2.9590    4.9339   52.8910 C.ar    1  ZINC000443933644   -0.1200
     17 C17        -3.5167    3.7665   52.4667 C.ar    1  ZINC000443933644   -0.0900
     18 C18        -2.7966    2.9259   51.6033 C.ar    1  ZINC000443933644   -0.0900
     19 C19        -3.3420    1.7087   51.1430 C.ar    1  ZINC000443933644    0.2300
     20 N20        -4.6207    1.3145   51.5416 N.am    1  ZINC000443933644   -0.6700
     21 C21        -5.6764    1.5345   50.7332 C.2     1  ZINC000443933644    0.5100
     22 C22        -7.0565    1.1089   51.1634 C.3     1  ZINC000443933644   -0.1700
     23 O23        -5.5156    2.0750   49.6594 O.2     1  ZINC000443933644   -0.5100
     24 C24        -2.6014    0.9127   50.2962 C.ar    1  ZINC000443933644   -0.1600
     25 C25        -1.3283    1.2993   49.8881 C.ar    1  ZINC000443933644    0.0400
     26 C26         0.3005    0.8373   46.4977 C.3     1  ZINC000443933644    0.4300
     27 F27        -0.6965    0.8787   45.5172 F       1  ZINC000443933644   -0.1700
     28 F28         1.5410    0.6102   45.8921 F       1  ZINC000443933644   -0.1600
     29 F29         0.0253   -0.1967   47.3991 F       1  ZINC000443933644   -0.1700
     30 H30         3.0261    3.9541   44.7691 H       1  ZINC000443933644    0.0500
     31 H31         2.4077    5.4061   45.5922 H       1  ZINC000443933644    0.0600
     32 H32         3.9988    4.7420   46.0346 H       1  ZINC000443933644    0.0600
     33 H33         2.9027    2.6932   46.9007 H       1  ZINC000443933644    0.0700
     34 H34         2.2844    4.1453   47.7237 H       1  ZINC000443933644    0.0900
     35 H35         0.3554    5.2325   45.6703 H       1  ZINC000443933644    0.0700
     36 H36        -1.0147    4.2291   46.2037 H       1  ZINC000443933644    0.0600
     37 H37         0.0912    4.9368   47.4055 H       1  ZINC000443933644    0.0700
     38 H38         1.9436    1.4403   48.4245 H       1  ZINC000443933644    0.4300
     39 H39         0.0360    4.8210   51.3362 H       1  ZINC000443933644    0.1400
     40 H40        -1.2609    6.2393   52.8327 H       1  ZINC000443933644    0.1300
     41 H41        -3.5153    5.5790   53.5550 H       1  ZINC000443933644    0.1300
     42 H42        -4.5080    3.4886   52.7929 H       1  ZINC000443933644    0.1300
     43 H43        -4.7492    0.8823   52.4005 H       1  ZINC000443933644    0.4200
     44 H44        -7.0031    0.6451   52.1484 H       1  ZINC000443933644    0.0800
     45 H45        -7.7085    1.9814   51.2074 H       1  ZINC000443933644    0.1000
     46 H46        -7.4561    0.3926   50.4456 H       1  ZINC000443933644    0.1000
     47 H47        -3.0154   -0.0197   49.9417 H       1  ZINC000443933644    0.1500
     48 H48        -0.7662    0.6594   49.2241 H       1  ZINC000443933644    0.1500
@<TRIPOS>BOND
     1     1     2    1
     2     1    30    1
     3     1    31    1
     4     1    32    1
     5     2     3    1
     6     2    33    1
     7     2    34    1
     8     3     4    1
     9     3     5    1
    10     3     6    1
    11     5    35    1
    12     5    36    1
    13     5    37    1
    14     6     7    1
    15     6     8    1
    16     6    26    1
    17     8     9   am
    18     8    38    1
    19     9    10    2
    20     9    11    2
    21     9    12    1
    22    12    25   ar
    23    12    13   ar
    24    13    18   ar
    25    13    14   ar
    26    14    15   ar
    27    14    39    1
    28    15    16   ar
    29    15    40    1
    30    16    17   ar
    31    16    41    1
    32    17    18   ar
    33    17    42    1
    34    18    19   ar
    35    19    20    1
    36    19    24   ar
    37    20    21   am
    38    20    43    1
    39    21    22    1
    40    21    23    2
    41    22    44    1
    42    22    45    1
    43    22    46    1
    44    24    25   ar
    45    24    47    1
    46    25    48    1
    47    26    27    1
    48    26    28    1
    49    26    29    1
@<TRIPOS>SUBSTRUCTURE
     1 ZINC000443933644        1 TEMP              0 ****  ****    0 ROOT


##########                                Name:    ZINC000928803822
##########                DOCK_Rotatable_Bonds:                   7
##########                         Heavy_Atoms:                  21
##########                    Molecular_Weight:             364.165
##########                DOCK_Rotatable_Bonds:                   7
##########                       Formal_Charge:         -0.00999978
##########                     HBond_Acceptors:                   7
##########                        HBond_Donors:                   1
##########                         Heavy_Atoms:                  21
##########                          Grid_Score:          -27.273533
##########                     Grid_vdw_energy:          -28.003180
##########                      Grid_es_energy:            0.729648
##########           Internal_energy_repulsive:           10.042591

@<TRIPOS>MOLECULE
ZINC000928803822
 34 34 1 0 0
SMALL
USER_CHARGES


@<TRIPOS>ATOM
      1 C1         -1.2318    2.3983   46.0140 C.3     1  ZINC000928803822    0.0900
      2 N2         -0.6188    1.4409   46.9382 N.pl3   1  ZINC000928803822   -0.6300
      3 C3          0.1168    0.2868   46.4158 C.3     1  ZINC000928803822    0.0900
      4 C4         -0.7358    1.6287   48.3176 C.ar    1  ZINC000928803822    0.2200
      5 C5          0.4022    1.6500   49.1148 C.ar    1  ZINC000928803822   -0.1500
      6 C6          0.2916    1.8356   50.4812 C.ar    1  ZINC000928803822   -0.0500
      7 Br7         1.8461    1.8636   51.5575 Br      1  ZINC000928803822   -0.0400
      8 C8         -0.9504    2.0009   51.0614 C.ar    1  ZINC000928803822   -0.1200
      9 C9         -2.0993    1.9811   50.2687 C.ar    1  ZINC000928803822   -0.0800
     10 C10        -3.4305    2.1578   50.8876 C.2     1  ZINC000928803822    0.5700
     11 O11        -3.5562    2.8661   51.8675 O.2     1  ZINC000928803822   -0.5100
     12 N12        -4.5048    1.5337   50.3651 N.am    1  ZINC000928803822   -0.7200
     13 C13        -5.8235    1.7074   50.9792 C.3     1  ZINC000928803822    0.1100
     14 H14        -5.7074    1.8586   52.0524 H       1  ZINC000928803822    0.1400
     15 C15        -6.6711    0.4586   50.7289 C.3     1  ZINC000928803822   -0.0300
     16 C16        -7.8162    0.4493   51.6537 C.1     1  ZINC000928803822    0.2000
     17 N17        -8.6999    0.4420   52.3675 N.1     1  ZINC000928803822   -0.4000
     18 C18        -6.5159    2.9254   50.3646 C.3     1  ZINC000928803822    0.4400
     19 F19        -7.8172    3.0255   50.8682 F       1  ZINC000928803822   -0.1800
     20 F20        -5.7998    4.0825   50.6898 F       1  ZINC000928803822   -0.1700
     21 F21        -6.5638    2.7822   48.9738 F       1  ZINC000928803822   -0.1600
     22 C22        -1.9872    1.7996   48.8906 C.ar    1  ZINC000928803822   -0.1200
     23 H23        -2.2501    2.0829   45.7867 H       1  ZINC000928803822    0.0600
     24 H24        -1.2517    3.3861   46.4745 H       1  ZINC000928803822    0.0700
     25 H25        -0.6496    2.4383   45.0934 H       1  ZINC000928803822    0.0700
     26 H26         1.1654    0.5534   46.2844 H       1  ZINC000928803822    0.0500
     27 H27         0.0380   -0.5427   47.1186 H       1  ZINC000928803822    0.0700
     28 H28        -0.3058   -0.0092   45.4556 H       1  ZINC000928803822    0.0700
     29 H29         1.3762    1.5208   48.6664 H       1  ZINC000928803822    0.1400
     30 H30        -1.0330    2.1453   52.1286 H       1  ZINC000928803822    0.1300
     31 H31        -4.4048    0.9695   49.5824 H       1  ZINC000928803822    0.4100
     32 H32        -7.0342    0.4659   49.7011 H       1  ZINC000928803822    0.1400
     33 H33        -6.0639   -0.4316   50.8933 H       1  ZINC000928803822    0.1300
     34 H34        -2.8726    1.7833   48.2725 H       1  ZINC000928803822    0.1500
@<TRIPOS>BOND
     1     1     2    1
     2     1    23    1
     3     1    24    1
     4     1    25    1
     5     2     3    1
     6     2     4    1
     7     3    26    1
     8     3    27    1
     9     3    28    1
    10     4    22   ar
    11     4     5   ar
    12     5     6   ar
    13     5    29    1
    14     6     7    1
    15     6     8   ar
    16     8     9   ar
    17     8    30    1
    18     9    10    1
    19     9    22   ar
    20    10    11    2
    21    10    12   am
    22    12    13    1
    23    12    31    1
    24    13    14    1
    25    13    15    1
    26    13    18    1
    27    15    16    1
    28    15    32    1
    29    15    33    1
    30    16    17    3
    31    18    19    1
    32    18    20    1
    33    18    21    1
    34    22    34    1
@<TRIPOS>SUBSTRUCTURE
     1 ZINC000928803822        1 TEMP              0 ****  ****    0 ROOT


##########                                Name:    ZINC000876376999
##########                DOCK_Rotatable_Bonds:                   7
##########                         Heavy_Atoms:                  24
##########                    Molecular_Weight:             358.502
##########                DOCK_Rotatable_Bonds:                   7
##########                       Formal_Charge:          -0.0299994
##########                     HBond_Acceptors:                   7
##########                        HBond_Donors:                   2
##########                         Heavy_Atoms:                  24
##########                          Grid_Score:          -27.246325
##########                     Grid_vdw_energy:          -25.275282
##########                      Grid_es_energy:           -1.971042
##########           Internal_energy_repulsive:           32.505413

@<TRIPOS>MOLECULE
ZINC000876376999
 54 56 1 0 0
SMALL
USER_CHARGES


@<TRIPOS>ATOM
      1 C1         -8.6337    3.3019   52.4313 C.3     1  ZINC000876376999   -0.1500
      2 C2         -7.5040    2.2726   52.5039 C.3     1  ZINC000876376999   -0.1100
      3 C3         -6.2188    2.8856   51.9444 C.3     1  ZINC000876376999   -0.0700
      4 C4         -6.5235    3.5915   50.6216 C.3     1  ZINC000876376999    0.0900
      5 O5         -7.2620    2.7120   49.7714 O.3     1  ZINC000876376999   -0.5600
      6 C6         -5.6569    3.8969   52.9462 C.3     1  ZINC000876376999   -0.1100
      7 C7         -4.3892    4.5348   52.3733 C.3     1  ZINC000876376999   -0.1400
      8 C8         -3.3352    3.4474   52.1413 C.3     1  ZINC000876376999    0.1100
      9 N9         -3.9178    2.3971   51.2950 N.am    1  ZINC000876376999   -0.6300
     10 C10        -3.3009    2.0072   50.1620 C.2     1  ZINC000876376999    0.7100
     11 O11        -3.7931    1.1369   49.4702 O.2     1  ZINC000876376999   -0.5800
     12 N12        -2.1381    2.5821   49.7958 N.am    1  ZINC000876376999   -0.7500
     13 C13        -1.4674    2.1583   48.5642 C.3     1  ZINC000876376999    0.1400
     14 C14         0.0514    2.1837   48.7745 C.3     1  ZINC000876376999   -0.1100
     15 C15         0.6236    0.7995   48.6328 C.3     1  ZINC000876376999   -0.1100
     16 C16         1.2605    0.4720   47.2772 C.3     1  ZINC000876376999   -0.5200
     17 H17         1.6406   -0.5567   47.2062 H       1  ZINC000876376999    0.1500
     18 C18         0.2247    0.8126   46.1814 C.3     1  ZINC000876376999   -0.1200
     19 C19         0.2464    2.2997   45.8449 C.3     1  ZINC000876376999   -0.1200
     20 C20         1.2982    3.0499   46.6941 C.3     1  ZINC000876376999   -0.5300
     21 H21         1.7063    3.9367   46.1895 H       1  ZINC000876376999    0.1500
     22 C22         0.6611    3.3556   48.0546 C.3     1  ZINC000876376999   -0.1000
     23 S23         2.5612    1.7469   47.0069 S.o2    1  ZINC000876376999    2.3700
     24 O24         3.2497    2.0115   48.2206 O.2     1  ZINC000876376999   -0.9300
     25 O25         3.2811    1.4667   45.8144 O.2     1  ZINC000876376999   -0.9300
     26 C26        -5.1856    1.7795   51.7075 C.3     1  ZINC000876376999    0.1400
     27 H27        -8.4018    4.1425   53.0853 H       1  ZINC000876376999    0.0500
     28 H28        -8.7364    3.6569   51.4059 H       1  ZINC000876376999    0.0600
     29 H29        -9.5675    2.8396   52.7511 H       1  ZINC000876376999    0.0500
     30 H30        -7.3451    1.9800   53.5418 H       1  ZINC000876376999    0.0600
     31 H31        -7.7738    1.3951   51.9163 H       1  ZINC000876376999    0.0700
     32 H32        -7.1117    4.4884   50.8155 H       1  ZINC000876376999    0.0500
     33 H33        -5.5888    3.8685   50.1339 H       1  ZINC000876376999    0.0400
     34 H34        -7.4912    3.0947   48.9134 H       1  ZINC000876376999    0.3800
     35 H35        -6.3998    4.6719   53.1353 H       1  ZINC000876376999    0.0700
     36 H36        -5.4173    3.3883   53.8800 H       1  ZINC000876376999    0.0700
     37 H37        -4.6230    5.0224   51.4270 H       1  ZINC000876376999    0.0700
     38 H38        -4.0026    5.2717   53.0772 H       1  ZINC000876376999    0.0800
     39 H39        -2.4680    3.8797   51.6423 H       1  ZINC000876376999    0.0700
     40 H40        -3.0340    3.0206   53.0979 H       1  ZINC000876376999    0.0700
     41 H41        -1.7453    3.2763   50.3477 H       1  ZINC000876376999    0.3900
     42 H42        -1.7820    1.1464   48.3088 H       1  ZINC000876376999    0.0800
     43 H43        -1.7334    2.8369   47.7536 H       1  ZINC000876376999    0.0700
     44 H44         0.1641    2.4294   49.8682 H       1  ZINC000876376999    0.0900
     45 H45         1.3797    0.6433   49.4220 H       1  ZINC000876376999    0.0900
     46 H46        -0.1717    0.0608   48.8341 H       1  ZINC000876376999    0.0900
     47 H47         0.4724    0.2483   45.2770 H       1  ZINC000876376999    0.0800
     48 H48        -0.7697    0.5204   46.5059 H       1  ZINC000876376999    0.0900
     49 H49         0.5039    2.4129   44.7873 H       1  ZINC000876376999    0.0800
     50 H50        -0.7374    2.7307   46.0060 H       1  ZINC000876376999    0.0900
     51 H51        -0.1121    4.1309   47.9134 H       1  ZINC000876376999    0.0900
     52 H52         1.4264    3.8150   48.7045 H       1  ZINC000876376999    0.0900
     53 H53        -5.0352    1.2167   52.6288 H       1  ZINC000876376999    0.0600
     54 H54        -5.5392    1.1114   50.9223 H       1  ZINC000876376999    0.1000
@<TRIPOS>BOND
     1     1     2    1
     2     1    27    1
     3     1    28    1
     4     1    29    1
     5     2     3    1
     6     2    30    1
     7     2    31    1
     8     3    26    1
     9     3     4    1
    10     3     6    1
    11     4     5    1
    12     4    32    1
    13     4    33    1
    14     5    34    1
    15     6     7    1
    16     6    35    1
    17     6    36    1
    18     7     8    1
    19     7    37    1
    20     7    38    1
    21     8     9    1
    22     8    39    1
    23     8    40    1
    24     9    10   am
    25     9    26    1
    26    10    11    2
    27    10    12   am
    28    12    13    1
    29    12    41    1
    30    13    14    1
    31    13    42    1
    32    13    43    1
    33    14    22    1
    34    14    15    1
    35    14    44    1
    36    15    16    1
    37    15    45    1
    38    15    46    1
    39    16    17    1
    40    16    23    1
    41    16    18    1
    42    18    19    1
    43    18    47    1
    44    18    48    1
    45    19    20    1
    46    19    49    1
    47    19    50    1
    48    20    21    1
    49    20    22    1
    50    20    23    1
    51    22    51    1
    52    22    52    1
    53    23    24    2
    54    23    25    2
    55    26    53    1
    56    26    54    1
@<TRIPOS>SUBSTRUCTURE
     1 ZINC000876376999        1 TEMP              0 ****  ****    0 ROOT


##########                                Name:    ZINC000680410869
##########                DOCK_Rotatable_Bonds:                   6
##########                         Heavy_Atoms:                  24
##########                    Molecular_Weight:             335.354
##########                DOCK_Rotatable_Bonds:                   6
##########                       Formal_Charge:        -1.04308e-07
##########                     HBond_Acceptors:                   7
##########                        HBond_Donors:                   0
##########                         Heavy_Atoms:                  24
##########                          Grid_Score:          -27.196400
##########                     Grid_vdw_energy:          -26.105515
##########                      Grid_es_energy:           -1.090885
##########           Internal_energy_repulsive:           10.519154

@<TRIPOS>MOLECULE
ZINC000680410869
 43 45 1 0 0
SMALL
USER_CHARGES


@<TRIPOS>ATOM
      1 O1         -2.3435    1.2613   50.7799 O.2     1  ZINC000680410869   -0.5200
      2 C2         -1.6089    2.0302   50.1907 C.2     1  ZINC000680410869    0.6100
      3 C3         -1.1103    1.6889   48.8429 C.2     1  ZINC000680410869    0.0100
      4 N4         -1.6635    2.0230   47.6940 N.2     1  ZINC000680410869   -0.2500
      5 N5         -0.9663    1.5619   46.7185 N.pl3   1  ZINC000680410869   -0.3500
      6 C6         -1.2864    1.7438   45.3005 C.3     1  ZINC000680410869    0.5000
      7 F7         -0.5016    2.7753   44.7738 F       1  ZINC000680410869   -0.1600
      8 F8         -1.0238    0.5575   44.6072 F       1  ZINC000680410869   -0.1700
      9 C9          0.1043    0.8861   47.1880 C.2     1  ZINC000680410869    0.0100
     10 C10         0.0552    0.9460   48.5393 C.2     1  ZINC000680410869   -0.1700
     11 N11        -1.2539    3.1966   50.7651 N.am    1  ZINC000680410869   -0.6000
     12 C12        -0.3708    4.1459   50.0692 C.3     1  ZINC000680410869    0.0800
     13 C13         0.7663    4.5352   51.0207 C.3     1  ZINC000680410869    0.0500
     14 O14         0.2112    4.9774   52.2617 O.3     1  ZINC000680410869   -0.3700
     15 C15        -0.5345    3.9765   52.9589 C.3     1  ZINC000680410869    0.0800
     16 H16         0.1011    3.1098   53.1411 H       1  ZINC000680410869    0.0600
     17 C17        -1.0236    4.5412   54.2942 C.3     1  ZINC000680410869   -0.1000
     18 C18        -1.6712    3.4235   55.1140 C.3     1  ZINC000680410869   -0.0800
     19 C19        -1.2621    3.5580   56.5582 C.ar    1  ZINC000680410869   -0.0800
     20 C20        -1.1638    4.8106   57.1348 C.ar    1  ZINC000680410869   -0.1200
     21 C21        -0.7885    4.9340   58.4594 C.ar    1  ZINC000680410869   -0.1200
     22 C22        -0.5119    3.8050   59.2077 C.ar    1  ZINC000680410869   -0.1300
     23 C23        -0.6111    2.5525   58.6312 C.ar    1  ZINC000680410869   -0.1200
     24 C24        -0.9906    2.4287   57.3078 C.ar    1  ZINC000680410869   -0.1200
     25 C25        -1.7428    3.5611   52.1043 C.3     1  ZINC000680410869    0.0600
     26 H26        -2.3407    1.9999   45.1960 H       1  ZINC000680410869    0.1700
     27 H27         0.8611    0.3933   46.5956 H       1  ZINC000680410869    0.1900
     28 H28         0.7550    0.5132   49.2388 H       1  ZINC000680410869    0.1700
     29 H29         0.0421    3.6763   49.1764 H       1  ZINC000680410869    0.1000
     30 H30        -0.9357    5.0350   49.7891 H       1  ZINC000680410869    0.0800
     31 H31         1.4066    3.6706   51.1958 H       1  ZINC000680410869    0.0600
     32 H32         1.3530    5.3397   50.5771 H       1  ZINC000680410869    0.1100
     33 H33        -0.1787    4.9535   54.8457 H       1  ZINC000680410869    0.0800
     34 H34        -1.7556    5.3275   54.1098 H       1  ZINC000680410869    0.0800
     35 H35        -2.7559    3.4969   55.0354 H       1  ZINC000680410869    0.0700
     36 H36        -1.3440    2.4564   54.7322 H       1  ZINC000680410869    0.0800
     37 H37        -1.3799    5.6926   56.5503 H       1  ZINC000680410869    0.1200
     38 H38        -0.7110    5.9126   58.9098 H       1  ZINC000680410869    0.1200
     39 H39        -0.2180    3.9015   60.2424 H       1  ZINC000680410869    0.1200
     40 H40        -0.3947    1.6704   59.2157 H       1  ZINC000680410869    0.1200
     41 H41        -1.0681    1.4503   56.8574 H       1  ZINC000680410869    0.1200
     42 H42        -2.4439    4.3925   52.0314 H       1  ZINC000680410869    0.0800
     43 H43        -2.2366    2.7026   52.5595 H       1  ZINC000680410869    0.1300
@<TRIPOS>BOND
     1     1     2    2
     2     2     3    1
     3     2    11   am
     4     3    10    1
     5     3     4    2
     6     4     5    1
     7     5     6    1
     8     5     9    1
     9     6     7    1
    10     6     8    1
    11     6    26    1
    12     9    10    2
    13     9    27    1
    14    10    28    1
    15    11    25    1
    16    11    12    1
    17    12    13    1
    18    12    29    1
    19    12    30    1
    20    13    14    1
    21    13    31    1
    22    13    32    1
    23    14    15    1
    24    15    16    1
    25    15    17    1
    26    15    25    1
    27    17    18    1
    28    17    33    1
    29    17    34    1
    30    18    19    1
    31    18    35    1
    32    18    36    1
    33    19    24   ar
    34    19    20   ar
    35    20    21   ar
    36    20    37    1
    37    21    22   ar
    38    21    38    1
    39    22    23   ar
    40    22    39    1
    41    23    24   ar
    42    23    40    1
    43    24    41    1
    44    25    42    1
    45    25    43    1
@<TRIPOS>SUBSTRUCTURE
     1 ZINC000680410869        1 TEMP              0 ****  ****    0 ROOT


##########                                Name:    ZINC000648570180
##########                DOCK_Rotatable_Bonds:                   4
##########                         Heavy_Atoms:                  25
##########                    Molecular_Weight:             342.484
##########                DOCK_Rotatable_Bonds:                   4
##########                       Formal_Charge:          0.00999971
##########                     HBond_Acceptors:                   5
##########                        HBond_Donors:                   0
##########                         Heavy_Atoms:                  25
##########                          Grid_Score:          -27.073324
##########                     Grid_vdw_energy:          -25.527390
##########                      Grid_es_energy:           -1.545934
##########           Internal_energy_repulsive:           81.365784

@<TRIPOS>MOLECULE
ZINC000648570180
 55 58 1 0 0
SMALL
USER_CHARGES


@<TRIPOS>ATOM
      1 C1         -7.2927    3.4484   54.9121 C.3     1  ZINC000648570180   -0.1500
      2 C2         -7.3171    4.7563   54.1185 C.3     1  ZINC000648570180   -0.0600
      3 C3         -8.7627    5.1955   53.8771 C.3     1  ZINC000648570180   -0.1400
      4 C4         -6.5512    5.8541   54.8854 C.3     1  ZINC000648570180   -0.1200
      5 C5         -5.8341    6.6626   53.7757 C.3     1  ZINC000648570180   -0.1300
      6 C6         -5.4093    5.5625   52.7715 C.3     1  ZINC000648570180   -0.1200
      7 C7         -6.5911    4.5709   52.7745 C.3     1  ZINC000648570180   -0.0700
      8 H8         -7.2684    4.7946   51.9503 H       1  ZINC000648570180    0.0800
      9 C9         -6.0723    3.1368   52.6513 C.3     1  ZINC000648570180   -0.1000
     10 H10        -5.6664    2.7875   53.6008 H       1  ZINC000648570180    0.1000
     11 C11        -7.1849    2.1849   52.1383 C.3     1  ZINC000648570180   -0.1400
     12 C12        -6.3859    1.0596   51.4478 C.3     1  ZINC000648570180    0.1200
     13 N13        -5.0668    1.6095   51.1025 N.am    1  ZINC000648570180   -0.6000
     14 C14        -4.0669    0.9342   50.5020 C.2     1  ZINC000648570180    0.5800
     15 O15        -4.2184   -0.2322   50.1983 O.2     1  ZINC000648570180   -0.5200
     16 C16        -2.7803    1.6158   50.2117 C.ar    1  ZINC000648570180    0.1600
     17 C17        -1.9546    2.0420   51.2516 C.ar    1  ZINC000648570180   -0.2000
     18 C18        -0.7610    2.6743   50.9310 C.ar    1  ZINC000648570180    0.1800
     19 N19        -0.4458    2.8517   49.6604 N.ar    1  ZINC000648570180   -0.5400
     20 C20        -1.2514    2.4354   48.6932 C.ar    1  ZINC000648570180    0.4800
     21 N21        -0.8839    2.6409   47.3745 N.3     1  ZINC000648570180   -0.4400
     22 C22        -0.4002    4.0299   47.1669 C.3     1  ZINC000648570180    0.0500
     23 C23         0.4280    3.9256   45.8616 C.3     1  ZINC000648570180   -0.1200
     24 C24         1.1125    2.5459   45.9959 C.3     1  ZINC000648570180   -0.1300
     25 C25         0.2425    1.7608   46.9949 C.3     1  ZINC000648570180    0.0400
     26 N26        -2.3949    1.8244   48.9552 N.ar    1  ZINC000648570180   -0.5000
     27 C27        -5.0186    3.0226   51.5216 C.3     1  ZINC000648570180    0.1100
     28 H28        -6.2672    3.0862   54.9843 H       1  ZINC000648570180    0.0600
     29 H29        -7.6875    3.6234   55.9129 H       1  ZINC000648570180    0.0500
     30 H30        -7.9061    2.7039   54.4045 H       1  ZINC000648570180    0.0700
     31 H31        -9.2645    5.3358   54.8345 H       1  ZINC000648570180    0.0500
     32 H32        -8.7695    6.1337   53.3223 H       1  ZINC000648570180    0.0500
     33 H33        -9.2839    4.4298   53.3025 H       1  ZINC000648570180    0.0500
     34 H34        -7.2451    6.4912   55.4337 H       1  ZINC000648570180    0.0600
     35 H35        -5.8235    5.4086   55.5636 H       1  ZINC000648570180    0.0700
     36 H36        -6.5200    7.3688   53.3079 H       1  ZINC000648570180    0.0700
     37 H37        -4.9611    7.1779   54.1763 H       1  ZINC000648570180    0.0700
     38 H38        -5.2700    5.9868   51.7772 H       1  ZINC000648570180    0.0700
     39 H39        -4.4973    5.0700   53.1084 H       1  ZINC000648570180    0.0700
     40 H40        -7.7679    1.7895   52.9701 H       1  ZINC000648570180    0.0900
     41 H41        -7.8293    2.6954   51.4226 H       1  ZINC000648570180    0.0800
     42 H42        -6.2693    0.2164   52.1286 H       1  ZINC000648570180    0.0800
     43 H43        -6.9025    0.7396   50.5430 H       1  ZINC000648570180    0.0700
     44 H44        -2.2371    1.8843   52.2821 H       1  ZINC000648570180    0.1600
     45 H45        -0.0979    3.0174   51.7113 H       1  ZINC000648570180    0.1800
     46 H46        -1.2388    4.7139   47.0369 H       1  ZINC000648570180    0.1000
     47 H47         0.2300    4.3460   47.9982 H       1  ZINC000648570180    0.0500
     48 H48        -0.2238    3.9494   44.9884 H       1  ZINC000648570180    0.0800
     49 H49         1.1709    4.7215   45.8116 H       1  ZINC000648570180    0.0800
     50 H50         1.1329    2.0382   45.0315 H       1  ZINC000648570180    0.0800
     51 H51         2.1241    2.6618   46.3848 H       1  ZINC000648570180    0.0700
     52 H52         0.8287    1.5063   47.8778 H       1  ZINC000648570180    0.0900
     53 H53        -0.1373    0.8540   46.5240 H       1  ZINC000648570180    0.0900
     54 H54        -5.2839    3.6744   50.6891 H       1  ZINC000648570180    0.0700
     55 H55        -4.0272    3.2728   51.8992 H       1  ZINC000648570180    0.0800
@<TRIPOS>BOND
     1     1     2    1
     2     1    28    1
     3     1    29    1
     4     1    30    1
     5     2     7    1
     6     2     3    1
     7     2     4    1
     8     3    31    1
     9     3    32    1
    10     3    33    1
    11     4     5    1
    12     4    34    1
    13     4    35    1
    14     5     6    1
    15     5    36    1
    16     5    37    1
    17     6     7    1
    18     6    38    1
    19     6    39    1
    20     7     8    1
    21     7     9    1
    22     9    10    1
    23     9    27    1
    24     9    11    1
    25    11    12    1
    26    11    40    1
    27    11    41    1
    28    12    13    1
    29    12    42    1
    30    12    43    1
    31    13    14   am
    32    13    27    1
    33    14    15    2
    34    14    16    1
    35    16    26   ar
    36    16    17   ar
    37    17    18   ar
    38    17    44    1
    39    18    19   ar
    40    18    45    1
    41    19    20   ar
    42    20    21    1
    43    20    26   ar
    44    21    25    1
    45    21    22    1
    46    22    23    1
    47    22    46    1
    48    22    47    1
    49    23    24    1
    50    23    48    1
    51    23    49    1
    52    24    25    1
    53    24    50    1
    54    24    51    1
    55    25    52    1
    56    25    53    1
    57    27    54    1
    58    27    55    1
@<TRIPOS>SUBSTRUCTURE
     1 ZINC000648570180        1 TEMP              0 ****  ****    0 ROOT


##########                                Name:    ZINC000055987960
##########                DOCK_Rotatable_Bonds:                   6
##########                         Heavy_Atoms:                  28
##########                    Molecular_Weight:             404.868
##########                DOCK_Rotatable_Bonds:                   6
##########                       Formal_Charge:          0.00999941
##########                     HBond_Acceptors:                   7
##########                        HBond_Donors:                   1
##########                         Heavy_Atoms:                  28
##########                          Grid_Score:          -27.001816
##########                     Grid_vdw_energy:          -27.264576
##########                      Grid_es_energy:            0.262761
##########           Internal_energy_repulsive:           14.795910

@<TRIPOS>MOLECULE
ZINC000055987960
 50 52 1 0 0
SMALL
USER_CHARGES


@<TRIPOS>ATOM
      1 C1         -8.4268   -0.0828   61.0556 C.3     1  ZINC000055987960   -0.1800
      2 C2         -9.9289   -0.2582   60.8235 C.3     1  ZINC000055987960    0.0700
      3 H3        -10.4093   -0.5536   61.7562 H       1  ZINC000055987960    0.1200
      4 C4        -10.5294    1.0650   60.3350 C.3     1  ZINC000055987960    0.0800
      5 N5        -10.0019    1.3456   58.9903 N.am    1  ZINC000055987960   -0.6100
      6 C6         -9.4592    2.5432   58.6939 C.2     1  ZINC000055987960    0.5700
      7 O7         -9.4002    3.4109   59.5436 O.2     1  ZINC000055987960   -0.5300
      8 C8         -8.9366    2.8014   57.3380 C.ar    1  ZINC000055987960   -0.1500
      9 C9         -9.8143    2.8877   56.2540 C.ar    1  ZINC000055987960   -0.0700
     10 C10        -9.3236    3.1291   54.9905 C.ar    1  ZINC000055987960   -0.1500
     11 C11        -7.9555    3.2870   54.7923 C.ar    1  ZINC000055987960    0.1700
     12 N12        -7.4619    3.5317   53.5114 N.am    1  ZINC000055987960   -0.6700
     13 C13        -7.7045    2.6552   52.5168 C.2     1  ZINC000055987960    0.5200
     14 O14        -8.3522    1.6534   52.7359 O.2     1  ZINC000055987960   -0.5000
     15 C15        -7.1711    2.9196   51.1324 C.3     1  ZINC000055987960   -0.1100
     16 C16        -5.7368    2.4647   51.0512 C.ar    1  ZINC000055987960   -0.1000
     17 C17        -4.7108    3.3633   51.2872 C.ar    1  ZINC000055987960    0.1300
     18 F18        -4.9948    4.6489   51.5903 F       1  ZINC000055987960   -0.1300
     19 C19        -3.3931    2.9437   51.2127 C.ar    1  ZINC000055987960   -0.1500
     20 C20        -3.1032    1.6287   50.9031 C.ar    1  ZINC000055987960   -0.0700
     21 C21        -4.1279    0.7310   50.6675 C.ar    1  ZINC000055987960   -0.1200
     22 C22        -5.4448    1.1472   50.7465 C.ar    1  ZINC000055987960    0.0000
     23 Cl23       -6.7308    0.0190   50.4510 Cl      1  ZINC000055987960   -0.0500
     24 C24        -7.0789    3.2015   55.8694 C.ar    1  ZINC000055987960   -0.1200
     25 C25        -7.5635    2.9656   57.1362 C.ar    1  ZINC000055987960   -0.0500
     26 C26       -10.0840    0.2800   57.9788 C.3     1  ZINC000055987960    0.0600
     27 C27        -9.5051   -1.0049   58.5821 C.3     1  ZINC000055987960    0.0700
     28 H28        -8.4335   -0.8826   58.7394 H       1  ZINC000055987960    0.0700
     29 C29        -9.7514   -2.1742   57.6266 C.3     1  ZINC000055987960   -0.1500
     30 O30       -10.1446   -1.2677   59.8346 O.3     1  ZINC000055987960   -0.3700
     31 H31        -7.9470    0.2127   60.1225 H       1  ZINC000055987960    0.0600
     32 H32        -8.2631    0.6883   61.8085 H       1  ZINC000055987960    0.0700
     33 H33        -8.0002   -1.0244   61.4012 H       1  ZINC000055987960    0.0700
     34 H34       -11.6155    0.9819   60.2934 H       1  ZINC000055987960    0.0800
     35 H35       -10.2480    1.8690   61.0150 H       1  ZINC000055987960    0.1000
     36 H36       -10.8763    2.7650   56.4070 H       1  ZINC000055987960    0.1400
     37 H37       -10.0013    3.1956   54.1522 H       1  ZINC000055987960    0.1300
     38 H38        -6.9439    4.3329   53.3362 H       1  ZINC000055987960    0.4200
     39 H39        -7.7678    2.3724   50.4025 H       1  ZINC000055987960    0.1200
     40 H40        -7.2263    3.9872   50.9195 H       1  ZINC000055987960    0.1200
     41 H41        -2.5921    3.6445   51.3964 H       1  ZINC000055987960    0.1500
     42 H42        -2.0754    1.3019   50.8448 H       1  ZINC000055987960    0.1500
     43 H43        -3.9002   -0.2965   50.4252 H       1  ZINC000055987960    0.1400
     44 H44        -6.0175    3.3241   55.7120 H       1  ZINC000055987960    0.1500
     45 H45        -6.8827    2.8994   57.9719 H       1  ZINC000055987960    0.1300
     46 H46       -11.1252    0.1180   57.7000 H       1  ZINC000055987960    0.0800
     47 H47        -9.5077    0.5643   57.0985 H       1  ZINC000055987960    0.1100
     48 H48        -9.2667   -1.9712   56.6716 H       1  ZINC000055987960    0.0700
     49 H49        -9.3395   -3.0874   58.0562 H       1  ZINC000055987960    0.0700
     50 H50       -10.8232   -2.2970   57.4712 H       1  ZINC000055987960    0.0700
@<TRIPOS>BOND
     1     1     2    1
     2     1    31    1
     3     1    32    1
     4     1    33    1
     5     2     3    1
     6     2    30    1
     7     2     4    1
     8     4     5    1
     9     4    34    1
    10     4    35    1
    11     5     6   am
    12     5    26    1
    13     6     7    2
    14     6     8    1
    15     8    25   ar
    16     8     9   ar
    17     9    10   ar
    18     9    36    1
    19    10    11   ar
    20    10    37    1
    21    11    12    1
    22    11    24   ar
    23    12    13   am
    24    12    38    1
    25    13    14    2
    26    13    15    1
    27    15    16    1
    28    15    39    1
    29    15    40    1
    30    16    22   ar
    31    16    17   ar
    32    17    18    1
    33    17    19   ar
    34    19    20   ar
    35    19    41    1
    36    20    21   ar
    37    20    42    1
    38    21    22   ar
    39    21    43    1
    40    22    23    1
    41    24    25   ar
    42    24    44    1
    43    25    45    1
    44    26    27    1
    45    26    46    1
    46    26    47    1
    47    27    28    1
    48    27    29    1
    49    27    30    1
    50    29    48    1
    51    29    49    1
    52    29    50    1
@<TRIPOS>SUBSTRUCTURE
     1 ZINC000055987960        1 TEMP              0 ****  ****    0 ROOT


##########                                Name:    ZINC000326056918
##########                DOCK_Rotatable_Bonds:                   6
##########                         Heavy_Atoms:                  24
##########                    Molecular_Weight:             408.326
##########                DOCK_Rotatable_Bonds:                   6
##########                       Formal_Charge:         -0.00999978
##########                     HBond_Acceptors:                   9
##########                        HBond_Donors:                   0
##########                         Heavy_Atoms:                  24
##########                          Grid_Score:          -26.959892
##########                     Grid_vdw_energy:          -28.037081
##########                      Grid_es_energy:            1.077189
##########           Internal_energy_repulsive:           25.047276

@<TRIPOS>MOLECULE
ZINC000326056918
 39 40 1 0 0
SMALL
USER_CHARGES


@<TRIPOS>ATOM
      1 C1          0.7352    0.7377   44.0492 C.3     1  ZINC000326056918    0.0400
      2 O2         -0.5653    0.8166   44.6900 O.3     1  ZINC000326056918   -0.3500
      3 C3         -0.7704    1.8487   45.5341 C.2     1  ZINC000326056918    0.5000
      4 O4         -1.8561    1.9958   46.0623 O.2     1  ZINC000326056918   -0.4300
      5 C5          0.3137    2.7916   45.8143 C.2     1  ZINC000326056918   -0.1600
      6 C6          1.0602    2.8249   46.9596 C.2     1  ZINC000326056918   -0.6200
      7 S7          0.8234    1.7095   48.3030 S.o2    1  ZINC000326056918    2.6900
      8 O8         -0.0007    0.6606   47.8132 O.2     1  ZINC000326056918   -0.9100
      9 O9          2.1066    1.4886   48.8720 O.2     1  ZINC000326056918   -0.9400
     10 N10        -0.0662    2.5061   49.4504 N.am    1  ZINC000326056918   -0.9900
     11 C11        -0.4923    3.8882   49.2178 C.3     1  ZINC000326056918    0.0900
     12 C12        -0.4270    1.8285   50.6983 C.3     1  ZINC000326056918    0.1500
     13 C13        -1.9273    1.7331   50.8025 C.ar    1  ZINC000326056918   -0.0900
     14 C14        -2.6121    0.7860   50.0650 C.ar    1  ZINC000326056918   -0.0800
     15 C15        -3.9885    0.6982   50.1596 C.ar    1  ZINC000326056918   -0.1100
     16 C16        -4.6811    1.5581   50.9930 C.ar    1  ZINC000326056918   -0.0200
     17 Cl17       -6.4094    1.4473   51.1122 Cl      1  ZINC000326056918   -0.0600
     18 C18        -3.9960    2.5061   51.7320 C.ar    1  ZINC000326056918   -0.1100
     19 C19        -2.6185    2.5900   51.6408 C.ar    1  ZINC000326056918   -0.0300
     20 Cl20       -1.7578    3.7789   52.5680 Cl      1  ZINC000326056918   -0.0100
     21 C21         2.0139    3.8142   46.9580 C.2     1  ZINC000326056918   -0.0400
     22 C22         2.9512    4.0353   48.1171 C.3     1  ZINC000326056918   -0.1100
     23 C23         2.0499    4.5667   45.8516 C.2     1  ZINC000326056918   -0.2600
     24 S24         0.8699    4.0584   44.7291 S.3     1  ZINC000326056918    0.3100
     25 H25         0.7671   -0.1361   43.3982 H       1  ZINC000326056918    0.1100
     26 H26         0.9043    1.6376   43.4579 H       1  ZINC000326056918    0.0700
     27 H27         1.5108    0.6520   44.8104 H       1  ZINC000326056918    0.0700
     28 H28        -1.4199    3.8910   48.6454 H       1  ZINC000326056918    0.0600
     29 H29        -0.6544    4.3844   50.1746 H       1  ZINC000326056918    0.0700
     30 H30         0.2803    4.4177   48.6602 H       1  ZINC000326056918    0.0900
     31 H31         0.0021    0.8265   50.7048 H       1  ZINC000326056918    0.1100
     32 H32        -0.0392    2.3952   51.5447 H       1  ZINC000326056918    0.0900
     33 H33        -2.0719    0.1145   49.4141 H       1  ZINC000326056918    0.1400
     34 H34        -4.5233   -0.0417   49.5825 H       1  ZINC000326056918    0.1400
     35 H35        -4.5362    3.1777   52.3828 H       1  ZINC000326056918    0.1500
     36 H36         3.7964    3.3517   48.0366 H       1  ZINC000326056918    0.0900
     37 H37         3.3128    5.0635   48.1009 H       1  ZINC000326056918    0.0700
     38 H38         2.4225    3.8508   49.0523 H       1  ZINC000326056918    0.0900
     39 H39         2.7369    5.3841   45.6896 H       1  ZINC000326056918    0.1800
@<TRIPOS>BOND
     1     1     2    1
     2     1    25    1
     3     1    26    1
     4     1    27    1
     5     2     3    1
     6     3     4    2
     7     3     5    1
     8     5    24    1
     9     5     6    2
    10     6     7    1
    11     6    21    1
    12     7     8    2
    13     7     9    2
    14     7    10   am
    15    10    11    1
    16    10    12    1
    17    11    28    1
    18    11    29    1
    19    11    30    1
    20    12    13    1
    21    12    31    1
    22    12    32    1
    23    13    19   ar
    24    13    14   ar
    25    14    15   ar
    26    14    33    1
    27    15    16   ar
    28    15    34    1
    29    16    17    1
    30    16    18   ar
    31    18    19   ar
    32    18    35    1
    33    19    20    1
    34    21    22    1
    35    21    23    2
    36    22    36    1
    37    22    37    1
    38    22    38    1
    39    23    24    1
    40    23    39    1
@<TRIPOS>SUBSTRUCTURE
     1 ZINC000326056918        1 TEMP              0 ****  ****    0 ROOT


##########                                Name:    ZINC000879023512
##########                DOCK_Rotatable_Bonds:                   4
##########                         Heavy_Atoms:                  20
##########                    Molecular_Weight:             346.156
##########                DOCK_Rotatable_Bonds:                   4
##########                       Formal_Charge:        -5.96046e-08
##########                     HBond_Acceptors:                   7
##########                        HBond_Donors:                   1
##########                         Heavy_Atoms:                  20
##########                          Grid_Score:          -26.859829
##########                     Grid_vdw_energy:          -25.765755
##########                      Grid_es_energy:           -1.094075
##########           Internal_energy_repulsive:            2.792883

@<TRIPOS>MOLECULE
ZINC000879023512
 33 34 1 0 0
SMALL
USER_CHARGES


@<TRIPOS>ATOM
      1 O1         -3.8886    0.2452   50.1295 O.2     1  ZINC000879023512   -0.5600
      2 C2         -4.0321    1.3843   50.5298 C.2     1  ZINC000879023512    0.7200
      3 N3         -3.0444    2.2863   50.3640 N.am    1  ZINC000879023512   -0.6800
      4 C4         -1.8513    1.9101   49.7359 C.ar    1  ZINC000879023512    0.1800
      5 C5         -1.8308    1.6706   48.3684 C.ar    1  ZINC000879023512   -0.0900
      6 C6         -0.6522    1.2994   47.7510 C.ar    1  ZINC000879023512   -0.0700
      7 C7          0.5070    1.1658   48.4941 C.ar    1  ZINC000879023512   -0.0700
      8 Br8         2.1187    0.6575   47.6456 Br      1  ZINC000879023512    0.0200
      9 C9          0.4894    1.4039   49.8572 C.ar    1  ZINC000879023512    0.0000
     10 N10         1.7316    1.2599   50.6490 N.pl3   1  ZINC000879023512    0.0200
     11 O11         1.7168    1.4693   51.8488 O.2     1  ZINC000879023512   -0.1500
     12 O12         2.7687    0.9320   50.1009 O.2     1  ZINC000879023512   -0.1300
     13 C13        -0.6847    1.7812   50.4784 C.ar    1  ZINC000879023512   -0.0500
     14 N14        -5.1808    1.7465   51.1345 N.am    1  ZINC000879023512   -0.6300
     15 C15        -6.3317    0.8664   51.3849 C.3     1  ZINC000879023512    0.0900
     16 C16        -7.4188    1.7184   52.0733 C.3     1  ZINC000879023512   -0.1200
     17 C17        -7.0385    3.1653   51.6620 C.3     1  ZINC000879023512   -0.1400
     18 H18        -7.4224    3.4032   50.6699 H       1  ZINC000879023512    0.1000
     19 C19        -7.5347    4.1778   52.6961 C.3     1  ZINC000879023512    0.0700
     20 F20        -8.8196    4.6082   52.3482 F       1  ZINC000879023512   -0.2100
     21 C21        -5.4891    3.0888   51.6602 C.3     1  ZINC000879023512    0.1300
     22 H22        -3.1604    3.1960   50.6797 H       1  ZINC000879023512    0.4200
     23 H23        -2.7357    1.7740   47.7880 H       1  ZINC000879023512    0.1600
     24 H24        -0.6357    1.1130   46.6874 H       1  ZINC000879023512    0.1600
     25 H25        -0.6978    1.9673   51.5421 H       1  ZINC000879023512    0.1800
     26 H26        -6.7106    0.4740   50.4412 H       1  ZINC000879023512    0.0700
     27 H27        -6.0354    0.0455   52.0379 H       1  ZINC000879023512    0.0700
     28 H28        -8.4083    1.4581   51.6974 H       1  ZINC000879023512    0.0900
     29 H29        -7.3731    1.6007   53.1559 H       1  ZINC000879023512    0.0900
     30 H30        -7.5626    3.7086   53.6796 H       1  ZINC000879023512    0.0800
     31 H31        -6.8592    5.0330   52.7206 H       1  ZINC000879023512    0.0800
     32 H32        -5.1024    3.2035   52.6728 H       1  ZINC000879023512    0.0800
     33 H33        -5.0722    3.8539   51.0051 H       1  ZINC000879023512    0.0900
@<TRIPOS>BOND
     1     1     2    2
     2     2     3   am
     3     2    14   am
     4     3     4    1
     5     3    22    1
     6     4    13   ar
     7     4     5   ar
     8     5     6   ar
     9     5    23    1
    10     6     7   ar
    11     6    24    1
    12     7     8    1
    13     7     9   ar
    14     9    10    1
    15     9    13   ar
    16    10    11    2
    17    10    12    2
    18    13    25    1
    19    14    21    1
    20    14    15    1
    21    15    16    1
    22    15    26    1
    23    15    27    1
    24    16    17    1
    25    16    28    1
    26    16    29    1
    27    17    18    1
    28    17    19    1
    29    17    21    1
    30    19    20    1
    31    19    30    1
    32    19    31    1
    33    21    32    1
    34    21    33    1
@<TRIPOS>SUBSTRUCTURE
     1 ZINC000879023512        1 TEMP              0 ****  ****    0 ROOT


##########                                Name:    ZINC001039666729
##########                DOCK_Rotatable_Bonds:                   3
##########                         Heavy_Atoms:                  25
##########                    Molecular_Weight:             344.376
##########                DOCK_Rotatable_Bonds:                   3
##########                       Formal_Charge:          -0.0199998
##########                     HBond_Acceptors:                  10
##########                        HBond_Donors:                   2
##########                         Heavy_Atoms:                  25
##########                          Grid_Score:          -26.847342
##########                     Grid_vdw_energy:          -26.634975
##########                      Grid_es_energy:           -0.212366
##########           Internal_energy_repulsive:           22.839153

@<TRIPOS>MOLECULE
ZINC001039666729
 45 47 1 0 0
SMALL
USER_CHARGES


@<TRIPOS>ATOM
      1 C1          0.3501    4.7289   42.1344 C.3     1  ZINC001039666729   -0.1100
      2 C2          0.1039    4.9274   43.6079 C.ar    1  ZINC001039666729    0.2200
      3 C3          0.2970    6.1701   44.1901 C.ar    1  ZINC001039666729   -0.3000
      4 C4          0.0592    6.3097   45.5486 C.ar    1  ZINC001039666729    0.1900
      5 N5         -0.3424    5.2591   46.2446 N.ar    1  ZINC001039666729   -0.5800
      6 C6         -0.5176    4.0843   45.6572 C.ar    1  ZINC001039666729    0.6000
      7 N7         -0.9392    3.0060   46.4156 N.pl3   1  ZINC001039666729   -0.5900
      8 C8         -1.5963    1.7926   45.8406 C.3     1  ZINC001039666729    0.1200
      9 C9         -0.4986    0.8885   45.2753 C.3     1  ZINC001039666729    0.0900
     10 N10         0.3804    0.4638   46.3932 N.am    1  ZINC001039666729   -0.7400
     11 C11         1.5299    1.1982   46.5211 C.2     1  ZINC001039666729    0.5200
     12 O12         1.7695    2.1125   45.7612 O.2     1  ZINC001039666729   -0.5200
     13 C13         2.4898    0.8443   47.6277 C.3     1  ZINC001039666729   -0.1500
     14 C14         2.6456    2.0401   48.5696 C.3     1  ZINC001039666729    0.1100
     15 N15         1.2995    2.4194   49.0715 N.am    1  ZINC001039666729   -0.6100
     16 C16         0.7534    1.8715   50.1750 C.2     1  ZINC001039666729    0.6100
     17 O17         1.3670    1.0316   50.8041 O.2     1  ZINC001039666729   -0.5200
     18 C18        -0.5919    2.2919   50.6205 C.2     1  ZINC001039666729   -0.0400
     19 N19        -1.7109    1.5856   50.5670 N.2     1  ZINC001039666729   -0.2500
     20 N20        -2.6668    2.2975   51.0496 N.pl3   1  ZINC001039666729   -0.2300
     21 N21        -2.2412    3.4505   51.4250 N.2     1  ZINC001039666729   -0.2800
     22 C22        -0.9521    3.5263   51.1970 C.2     1  ZINC001039666729    0.0400
     23 C23         0.6039    3.4516   48.2598 C.3     1  ZINC001039666729    0.1100
     24 C24        -0.7822    2.9229   47.8999 C.3     1  ZINC001039666729    0.1300
     25 N25        -0.3044    3.9187   44.3603 N.ar    1  ZINC001039666729   -0.5700
     26 H26        -0.5680    4.9299   41.5823 H       1  ZINC001039666729    0.0800
     27 H27         1.1313    5.4122   41.8013 H       1  ZINC001039666729    0.0800
     28 H28         0.6650    3.7011   41.9539 H       1  ZINC001039666729    0.0800
     29 H29         0.6260    7.0115   43.5982 H       1  ZINC001039666729    0.1400
     30 H30         0.2006    7.2645   46.0329 H       1  ZINC001039666729    0.1600
     31 H31        -2.1436    1.2644   46.6213 H       1  ZINC001039666729    0.0800
     32 H32        -2.2797    2.0858   45.0436 H       1  ZINC001039666729    0.0900
     33 H33        -0.9489    0.0122   44.8090 H       1  ZINC001039666729    0.0800
     34 H34         0.0857    1.4381   44.5373 H       1  ZINC001039666729    0.1000
     35 H35         0.1593   -0.2729   46.9844 H       1  ZINC001039666729    0.4100
     36 H36         2.1031   -0.0090   48.1850 H       1  ZINC001039666729    0.0800
     37 H37         3.4595    0.5898   47.2001 H       1  ZINC001039666729    0.1100
     38 H38         3.2863    1.7662   49.4077 H       1  ZINC001039666729    0.1100
     39 H39         3.0856    2.8782   48.0291 H       1  ZINC001039666729    0.0900
     40 H40        -3.5883    2.0030   51.1204 H       1  ZINC001039666729    0.4700
     41 H41        -0.3021    4.3642   51.4019 H       1  ZINC001039666729    0.2100
     42 H42         0.5106    4.3714   48.8372 H       1  ZINC001039666729    0.0800
     43 H43         1.1699    3.6452   47.3487 H       1  ZINC001039666729    0.1200
     44 H44        -1.5462    3.5326   48.3821 H       1  ZINC001039666729    0.0700
     45 H45        -0.8773    1.8866   48.2243 H       1  ZINC001039666729    0.0900
@<TRIPOS>BOND
     1     1     2    1
     2     1    26    1
     3     1    27    1
     4     1    28    1
     5     2    25   ar
     6     2     3   ar
     7     3     4   ar
     8     3    29    1
     9     4     5   ar
    10     4    30    1
    11     5     6   ar
    12     6     7    1
    13     6    25   ar
    14     7    24    1
    15     7     8    1
    16     8     9    1
    17     8    31    1
    18     8    32    1
    19     9    10    1
    20     9    33    1
    21     9    34    1
    22    10    11   am
    23    10    35    1
    24    11    12    2
    25    11    13    1
    26    13    14    1
    27    13    36    1
    28    13    37    1
    29    14    15    1
    30    14    38    1
    31    14    39    1
    32    15    16   am
    33    15    23    1
    34    16    17    2
    35    16    18    1
    36    18    22    1
    37    18    19    2
    38    19    20    1
    39    20    21    1
    40    20    40    1
    41    21    22    2
    42    22    41    1
    43    23    24    1
    44    23    42    1
    45    23    43    1
    46    24    44    1
    47    24    45    1
@<TRIPOS>SUBSTRUCTURE
     1 ZINC001039666729        1 TEMP              0 ****  ****    0 ROOT


##########                                Name:    ZINC000826324849
##########                DOCK_Rotatable_Bonds:                   4
##########                         Heavy_Atoms:                  27
##########                    Molecular_Weight:             395.374
##########                DOCK_Rotatable_Bonds:                   4
##########                       Formal_Charge:           0.0400001
##########                     HBond_Acceptors:                  13
##########                        HBond_Donors:                   1
##########                         Heavy_Atoms:                  27
##########                          Grid_Score:          -26.818483
##########                     Grid_vdw_energy:          -25.146528
##########                      Grid_es_energy:           -1.671955
##########           Internal_energy_repulsive:          104.291222

@<TRIPOS>MOLECULE
ZINC000826324849
 41 44 1 0 0
SMALL
USER_CHARGES


@<TRIPOS>ATOM
      1 C1         -6.2702    1.4852   65.9979 C.3     1  ZINC000826324849   -0.0600
      2 C2         -7.6844    1.0363   65.7342 C.2     1  ZINC000826324849    0.2000
      3 N3         -8.6500    1.7589   65.2194 N.2     1  ZINC000826324849   -0.4600
      4 C4         -9.7227    0.9489   65.1721 C.2     1  ZINC000826324849    0.1600
      5 C5        -11.0918    1.3111   64.6572 C.3     1  ZINC000826324849    0.2200
      6 H6        -11.8371    0.6499   65.0994 H       1  ZINC000826324849    0.1300
      7 C7        -11.4119    2.7656   65.0202 C.3     1  ZINC000826324849    0.0600
      8 O8        -12.6244    3.1567   64.3718 O.3     1  ZINC000826324849   -0.3600
      9 C9        -12.5586    3.1330   62.9439 C.3     1  ZINC000826324849    0.0400
     10 C10       -12.2974    1.6972   62.4746 C.3     1  ZINC000826324849    0.0800
     11 N11       -11.1207    1.1805   63.1918 N.am    1  ZINC000826324849   -1.0100
     12 S12        -9.8657    0.4746   62.3737 S.o2    1  ZINC000826324849    2.7100
     13 O13        -8.8467    0.2323   63.3338 O.2     1  ZINC000826324849   -0.9300
     14 O14       -10.4360   -0.5493   61.5703 O.2     1  ZINC000826324849   -0.9300
     15 C15        -9.2244    1.6810   61.2610 C.ar    1  ZINC000826324849   -0.5800
     16 C16        -9.2789    3.0207   61.5877 C.ar    1  ZINC000826324849   -0.0400
     17 C17        -8.7762    3.9700   60.7159 C.ar    1  ZINC000826324849   -0.0800
     18 C18        -8.2164    3.5837   59.5123 C.ar    1  ZINC000826324849   -0.1100
     19 C19        -8.1562    2.2441   59.1739 C.ar    1  ZINC000826324849    0.1300
     20 F20        -7.6089    1.8667   57.9978 F       1  ZINC000826324849   -0.1100
     21 C21        -8.6565    1.2833   60.0528 C.ar    1  ZINC000826324849    0.0500
     22 C22        -8.5948   -0.1564   59.6966 C.2     1  ZINC000826324849    0.1800
     23 N23        -7.7588   -1.0525   60.1822 N.2     1  ZINC000826324849   -0.2600
     24 N24        -8.0251   -2.1833   59.6243 N.pl3   1  ZINC000826324849   -0.2200
     25 N25        -9.0029   -2.0321   58.8009 N.2     1  ZINC000826324849   -0.0200
     26 N26        -9.3821   -0.7995   58.8228 N.2     1  ZINC000826324849   -0.2600
     27 N27        -9.3614   -0.2036   65.6516 N.2     1  ZINC000826324849   -0.3800
     28 O28        -8.1926   -0.1761   65.9749 O.3     1  ZINC000826324849    0.0900
     29 H29        -5.7008    0.6601   66.4256 H       1  ZINC000826324849    0.1000
     30 H30        -5.8081    1.7989   65.0619 H       1  ZINC000826324849    0.1100
     31 H31        -6.2789    2.3215   66.6970 H       1  ZINC000826324849    0.1100
     32 H32       -11.5316    2.8534   66.1000 H       1  ZINC000826324849    0.1200
     33 H33       -10.5979    3.4109   64.6898 H       1  ZINC000826324849    0.0600
     34 H34       -13.5035    3.4850   62.5300 H       1  ZINC000826324849    0.1200
     35 H35       -11.7487    3.7795   62.6060 H       1  ZINC000826324849    0.0600
     36 H36       -13.1643    1.0749   62.6964 H       1  ZINC000826324849    0.0900
     37 H37       -12.1052    1.6909   61.4017 H       1  ZINC000826324849    0.1100
     38 H38        -9.7155    3.3289   62.5263 H       1  ZINC000826324849    0.1400
     39 H39        -8.8213    5.0171   60.9765 H       1  ZINC000826324849    0.1500
     40 H40        -7.8262    4.3291   58.8351 H       1  ZINC000826324849    0.1500
     41 H41        -7.5611   -3.0173   59.7973 H       1  ZINC000826324849    0.4800
@<TRIPOS>BOND
     1     1     2    1
     2     1    29    1
     3     1    30    1
     4     1    31    1
     5     2    28    1
     6     2     3    2
     7     3     4    1
     8     4     5    1
     9     4    27    2
    10     5     6    1
    11     5    11    1
    12     5     7    1
    13     7     8    1
    14     7    32    1
    15     7    33    1
    16     8     9    1
    17     9    10    1
    18     9    34    1
    19     9    35    1
    20    10    11    1
    21    10    36    1
    22    10    37    1
    23    11    12   am
    24    12    13    2
    25    12    14    2
    26    12    15    1
    27    15    21   ar
    28    15    16   ar
    29    16    17   ar
    30    16    38    1
    31    17    18   ar
    32    17    39    1
    33    18    19   ar
    34    18    40    1
    35    19    20    1
    36    19    21   ar
    37    21    22    1
    38    22    26    1
    39    22    23    2
    40    23    24    1
    41    24    25    1
    42    24    41    1
    43    25    26    2
    44    27    28    1
@<TRIPOS>SUBSTRUCTURE
     1 ZINC000826324849        1 TEMP              0 ****  ****    0 ROOT


##########                                Name:    ZINC000653668607
##########                DOCK_Rotatable_Bonds:                   5
##########                         Heavy_Atoms:                  28
##########                    Molecular_Weight:             379.459
##########                DOCK_Rotatable_Bonds:                   5
##########                       Formal_Charge:          0.00999918
##########                     HBond_Acceptors:                   6
##########                        HBond_Donors:                   2
##########                         Heavy_Atoms:                  28
##########                          Grid_Score:          -26.805815
##########                     Grid_vdw_energy:          -26.075459
##########                      Grid_es_energy:           -0.730357
##########           Internal_energy_repulsive:            7.271279

@<TRIPOS>MOLECULE
ZINC000653668607
 53 56 1 0 0
SMALL
USER_CHARGES


@<TRIPOS>ATOM
      1 C1         -1.0406    0.3039   44.5953 C.3     1  ZINC000653668607    0.0300
      2 O2         -0.8993    1.6710   44.9866 O.3     1  ZINC000653668607   -0.3200
      3 C3         -0.0109    1.9400   45.9792 C.ar    1  ZINC000653668607    0.1300
      4 C4          1.2430    2.4487   45.6735 C.ar    1  ZINC000653668607   -0.2000
      5 C5          2.1359    2.7209   46.6881 C.ar    1  ZINC000653668607   -0.0800
      6 C6          1.7920    2.4907   48.0141 C.ar    1  ZINC000653668607   -0.1000
      7 C7          2.8127    2.8253   49.0706 C.3     1  ZINC000653668607   -0.0800
      8 C8          2.4693    2.1328   50.3878 C.3     1  ZINC000653668607   -0.1200
      9 C9          1.0060    2.4390   50.7283 C.3     1  ZINC000653668607   -0.1100
     10 C10         0.1147    1.6976   49.7341 C.3     1  ZINC000653668607   -0.0600
     11 H11         0.1798    0.6261   49.9228 H       1  ZINC000653668607    0.1000
     12 C12        -1.3120    2.1481   49.9139 C.2     1  ZINC000653668607    0.5200
     13 O13        -1.7203    3.1220   49.3173 O.2     1  ZINC000653668607   -0.5100
     14 N14        -2.1345    1.4689   50.7377 N.am    1  ZINC000653668607   -0.6700
     15 C15        -3.4592    1.8871   50.9047 C.ar    1  ZINC000653668607    0.1500
     16 C16        -4.4476    1.4255   50.0448 C.ar    1  ZINC000653668607   -0.1100
     17 C17        -5.7561    1.8382   50.2090 C.ar    1  ZINC000653668607   -0.0900
     18 C18        -6.0856    2.7105   51.2282 C.ar    1  ZINC000653668607   -0.1200
     19 C19        -5.1015    3.1761   52.0914 C.ar    1  ZINC000653668607    0.1700
     20 N20        -5.4361    4.0602   53.1234 N.am    1  ZINC000653668607   -0.5800
     21 C21        -5.9667    3.5281   54.3795 C.3     1  ZINC000653668607    0.1100
     22 C22        -5.5848    4.4704   55.5260 C.3     1  ZINC000653668607   -0.1500
     23 C23        -6.0891    5.8777   55.1894 C.3     1  ZINC000653668607    0.1100
     24 N24        -5.5517    6.2823   53.8893 N.am    1  ZINC000653668607   -0.7400
     25 C25        -5.2586    5.3776   52.9433 C.2     1  ZINC000653668607    0.7100
     26 O26        -4.8244    5.7678   51.8768 O.2     1  ZINC000653668607   -0.5800
     27 C27        -3.7880    2.7589   51.9330 C.ar    1  ZINC000653668607   -0.1300
     28 C28         0.5496    1.9802   48.3197 C.ar    1  ZINC000653668607   -0.0300
     29 C29        -0.3544    1.7130   47.3012 C.ar    1  ZINC000653668607   -0.1500
     30 H30        -0.0815   -0.0733   44.2401 H       1  ZINC000653668607    0.0600
     31 H31        -1.3691   -0.2868   45.4504 H       1  ZINC000653668607    0.0600
     32 H32        -1.7788    0.2289   43.7968 H       1  ZINC000653668607    0.1000
     33 H33         1.5187    2.6302   44.6452 H       1  ZINC000653668607    0.1300
     34 H34         3.1121    3.1167   46.4497 H       1  ZINC000653668607    0.1300
     35 H35         3.7966    2.4954   48.7370 H       1  ZINC000653668607    0.0800
     36 H36         2.8293    3.9041   49.2253 H       1  ZINC000653668607    0.0800
     37 H37         2.6042    1.0563   50.2828 H       1  ZINC000653668607    0.0700
     38 H38         3.1169    2.5089   51.1798 H       1  ZINC000653668607    0.0800
     39 H39         0.7864    2.1012   51.7411 H       1  ZINC000653668607    0.0700
     40 H40         0.8280    3.5117   50.6519 H       1  ZINC000653668607    0.0800
     41 H41        -1.8080    0.6899   51.2149 H       1  ZINC000653668607    0.4100
     42 H42        -4.1931    0.7438   49.2468 H       1  ZINC000653668607    0.1400
     43 H43        -6.5228    1.4782   49.5389 H       1  ZINC000653668607    0.1300
     44 H44        -7.1092    3.0312   51.3540 H       1  ZINC000653668607    0.1200
     45 H45        -7.0523    3.4550   54.3143 H       1  ZINC000653668607    0.0700
     46 H46        -5.5445    2.5402   54.5639 H       1  ZINC000653668607    0.0900
     47 H47        -6.0474    4.1273   56.4513 H       1  ZINC000653668607    0.1000
     48 H48        -4.5008    4.4875   55.6400 H       1  ZINC000653668607    0.0800
     49 H49        -7.1783    5.8742   55.1483 H       1  ZINC000653668607    0.0700
     50 H50        -5.7548    6.5774   55.9555 H       1  ZINC000653668607    0.0900
     51 H51        -5.4008    7.2235   53.7095 H       1  ZINC000653668607    0.4200
     52 H52        -3.0214    3.1192   52.6030 H       1  ZINC000653668607    0.1300
     53 H53        -1.3315    1.3204   47.5412 H       1  ZINC000653668607    0.1200
@<TRIPOS>BOND
     1     1     2    1
     2     1    30    1
     3     1    31    1
     4     1    32    1
     5     2     3    1
     6     3    29   ar
     7     3     4   ar
     8     4     5   ar
     9     4    33    1
    10     5     6   ar
    11     5    34    1
    12     6    28   ar
    13     6     7    1
    14     7     8    1
    15     7    35    1
    16     7    36    1
    17     8     9    1
    18     8    37    1
    19     8    38    1
    20     9    10    1
    21     9    39    1
    22     9    40    1
    23    10    11    1
    24    10    12    1
    25    10    28    1
    26    12    13    2
    27    12    14   am
    28    14    15    1
    29    14    41    1
    30    15    27   ar
    31    15    16   ar
    32    16    17   ar
    33    16    42    1
    34    17    18   ar
    35    17    43    1
    36    18    19   ar
    37    18    44    1
    38    19    20    1
    39    19    27   ar
    40    20    25   am
    41    20    21    1
    42    21    22    1
    43    21    45    1
    44    21    46    1
    45    22    23    1
    46    22    47    1
    47    22    48    1
    48    23    24    1
    49    23    49    1
    50    23    50    1
    51    24    25   am
    52    24    51    1
    53    25    26    2
    54    27    52    1
    55    28    29   ar
    56    29    53    1
@<TRIPOS>SUBSTRUCTURE
     1 ZINC000653668607        1 TEMP              0 ****  ****    0 ROOT


##########                                Name:    ZINC000052999724
##########                DOCK_Rotatable_Bonds:                   6
##########                         Heavy_Atoms:                  25
##########                    Molecular_Weight:             398.571
##########                DOCK_Rotatable_Bonds:                   6
##########                       Formal_Charge:           0.0399994
##########                     HBond_Acceptors:                   8
##########                        HBond_Donors:                   1
##########                         Heavy_Atoms:                  25
##########                          Grid_Score:          -26.804310
##########                     Grid_vdw_energy:          -27.069244
##########                      Grid_es_energy:            0.264934
##########           Internal_energy_repulsive:           14.515161

@<TRIPOS>MOLECULE
ZINC000052999724
 47 49 1 0 0
SMALL
USER_CHARGES


@<TRIPOS>ATOM
      1 C1         -4.0776    6.1491   55.1374 C.3     1  ZINC000052999724   -0.1400
      2 C2         -3.3561    5.0453   55.9132 C.3     1  ZINC000052999724   -0.0400
      3 C3         -4.2667    3.8208   56.0234 C.3     1  ZINC000052999724   -0.1400
      4 C4         -2.0905    4.6665   55.1882 C.2     1  ZINC000052999724   -0.0400
      5 C5         -0.8749    4.5614   55.8035 C.2     1  ZINC000052999724   -0.2600
      6 C6         -0.6200    4.7943   57.2281 C.2     1  ZINC000052999724    0.6000
      7 O7         -0.3704    5.9170   57.6260 O.2     1  ZINC000052999724   -0.5200
      8 N8         -0.6621    3.7650   58.0973 N.am    1  ZINC000052999724   -0.6000
      9 C9         -0.9561    2.4031   57.6311 C.3     1  ZINC000052999724    0.1100
     10 C10         0.1558    1.4661   58.1132 C.3     1  ZINC000052999724   -0.1400
     11 C11         0.3019    1.5931   59.6313 C.3     1  ZINC000052999724    0.1500
     12 N12         1.3420    0.6740   60.1001 N.am    1  ZINC000052999724   -1.1100
     13 S13         0.9689   -0.5075   61.1988 S.o2    1  ZINC000052999724    2.7200
     14 O14        -0.1288   -1.2282   60.6559 O.2     1  ZINC000052999724   -0.9500
     15 O15         2.1985   -1.1209   61.5614 O.2     1  ZINC000052999724   -0.9400
     16 C16         0.3685    0.2974   62.6467 C.2     1  ZINC000052999724   -0.8000
     17 C17         0.8888    0.1712   63.8684 C.2     1  ZINC000052999724    0.0100
     18 C18         0.2476    0.9020   64.8537 C.2     1  ZINC000052999724   -0.1600
     19 C19        -0.7934    1.6216   64.4322 C.2     1  ZINC000052999724   -0.1700
     20 S20        -1.0039    1.3961   62.7006 S.3     1  ZINC000052999724    0.2100
     21 C21         0.6910    3.0291   59.9898 C.3     1  ZINC000052999724   -0.1500
     22 C22        -0.4089    3.9828   59.5280 C.3     1  ZINC000052999724    0.1100
     23 S23         0.3343    4.1014   54.6127 S.3     1  ZINC000052999724    0.2100
     24 C24        -0.8333    4.0737   53.3690 C.2     1  ZINC000052999724   -0.2400
     25 C25        -2.0449    4.3867   53.8430 C.2     1  ZINC000052999724   -0.1300
     26 H26        -3.4289    7.0215   55.0589 H       1  ZINC000052999724    0.0600
     27 H27        -4.3248    5.7892   54.1387 H       1  ZINC000052999724    0.0600
     28 H28        -4.9930    6.4231   55.6619 H       1  ZINC000052999724    0.0600
     29 H29        -3.1090    5.4052   56.9119 H       1  ZINC000052999724    0.0800
     30 H30        -4.5140    3.4608   55.0247 H       1  ZINC000052999724    0.0600
     31 H31        -3.7528    3.0343   56.5762 H       1  ZINC000052999724    0.0600
     32 H32        -5.1822    4.0946   56.5478 H       1  ZINC000052999724    0.0600
     33 H33        -1.9123    2.0757   58.0392 H       1  ZINC000052999724    0.0800
     34 H34        -0.9978    2.3907   56.5419 H       1  ZINC000052999724    0.0900
     35 H35        -0.0984    0.4377   57.8569 H       1  ZINC000052999724    0.0900
     36 H36         1.0954    1.7395   57.6333 H       1  ZINC000052999724    0.0800
     37 H37        -0.6455    1.3438   60.1094 H       1  ZINC000052999724    0.0900
     38 H38         2.2491    0.7576   59.7669 H       1  ZINC000052999724    0.4200
     39 H39         1.7452   -0.4540   64.0733 H       1  ZINC000052999724    0.1600
     40 H40         0.5658    0.8901   65.8857 H       1  ZINC000052999724    0.1500
     41 H41        -1.4104    2.2497   65.0578 H       1  ZINC000052999724    0.1800
     42 H42         0.8177    3.1131   61.0692 H       1  ZINC000052999724    0.1000
     43 H43         1.6257    3.2878   59.4922 H       1  ZINC000052999724    0.0800
     44 H44        -0.0918    5.0128   59.6918 H       1  ZINC000052999724    0.1000
     45 H45        -1.3224    3.7859   60.0890 H       1  ZINC000052999724    0.0800
     46 H46        -0.6233    3.8318   52.3376 H       1  ZINC000052999724    0.1700
     47 H47        -2.9214    4.4248   53.2132 H       1  ZINC000052999724    0.1400
@<TRIPOS>BOND
     1     1     2    1
     2     1    26    1
     3     1    27    1
     4     1    28    1
     5     2     3    1
     6     2     4    1
     7     2    29    1
     8     3    30    1
     9     3    31    1
    10     3    32    1
    11     4    25    1
    12     4     5    2
    13     5     6    1
    14     5    23    1
    15     6     7    2
    16     6     8   am
    17     8    22    1
    18     8     9    1
    19     9    10    1
    20     9    33    1
    21     9    34    1
    22    10    11    1
    23    10    35    1
    24    10    36    1
    25    11    12    1
    26    11    21    1
    27    11    37    1
    28    12    13   am
    29    12    38    1
    30    13    14    2
    31    13    15    2
    32    13    16    1
    33    16    20    1
    34    16    17    2
    35    17    18    1
    36    17    39    1
    37    18    19    2
    38    18    40    1
    39    19    20    1
    40    19    41    1
    41    21    22    1
    42    21    42    1
    43    21    43    1
    44    22    44    1
    45    22    45    1
    46    23    24    1
    47    24    25    2
    48    24    46    1
    49    25    47    1
@<TRIPOS>SUBSTRUCTURE
     1 ZINC000052999724        1 TEMP              0 ****  ****    0 ROOT


##########                                Name:     oleObject15.pdb
##########                DOCK_Rotatable_Bonds:                   9
##########                         Heavy_Atoms:                  29
##########                    Molecular_Weight:             395.545
##########                DOCK_Rotatable_Bonds:                   9
##########                       Formal_Charge:         0.000700183
##########                     HBond_Acceptors:                   5
##########                        HBond_Donors:                   1
##########                         Heavy_Atoms:                  29
##########                          Grid_Score:          -26.803102
##########                     Grid_vdw_energy:          -25.962580
##########                      Grid_es_energy:           -0.840523
##########           Internal_energy_repulsive:           11.677832

@<TRIPOS>MOLECULE
oleObject15.pdb
 62 64 1 0 0
SMALL
NO_CHARGES


@<TRIPOS>ATOM
      1 O          -4.3846    3.7878   51.1769 O.3     1  UNL        -0.3745
      2 C          -3.4178    3.9408   52.2406 C.3     1  UNL         0.0600
      3 C          -2.0403    4.2564   51.6129 C.3     1  UNL         0.0217
      4 N          -1.3183    3.0750   51.0853 N.4     1  UNL        -0.3010
      5 C          -1.6057    2.7567   49.6678 C.3     1  UNL        -0.0010
      6 C          -0.9255    1.4431   49.2248 C.3     1  UNL        -0.0289
      7 C           0.5974    1.4322   49.5003 C.3     1  UNL         0.0382
      8 C           0.8753    1.8538   50.9653 C.3     1  UNL        -0.0289
      9 C           0.1274    3.1405   51.3863 C.3     1  UNL        -0.0010
     10 C           1.3705    2.3035   48.4793 C.2     1  UNL         0.2156
     11 O           2.0966    3.2158   48.8303 O.2     1  UNL        -0.2774
     12 N           1.2802    2.0211   47.1223 N.am    1  UNL        -0.3025
     13 C           1.9371    2.7315   46.0089 C.3     1  UNL         0.0900
     14 C           2.1050    1.8615   44.7645 C.ar    1  UNL        -0.0217
     15 C           3.2738    1.9299   43.9795 C.ar    1  UNL        -0.0568
     16 C           3.4066    1.1320   42.8314 C.ar    1  UNL        -0.0619
     17 C           2.3739    0.2569   42.4603 C.ar    1  UNL        -0.0622
     18 C           1.2094    0.1786   43.2400 C.ar    1  UNL        -0.0619
     19 C           1.0769    0.9764   44.3882 C.ar    1  UNL        -0.0568
     20 C           1.2157    4.0314   45.6655 C.ar    1  UNL         0.0652
     21 C           1.2910    4.6035   44.3787 C.ar    1  UNL        -0.0383
     22 C           0.6119    5.8063   44.1265 C.ar    1  UNL        -0.0588
     23 C          -0.1178    6.3963   45.1701 C.ar    1  UNL        -0.0438
     24 C          -0.1385    5.7600   46.4230 C.ar    1  UNL         0.0272
     25 N           0.5132    4.6049   46.6670 N.ar    1  UNL        -0.2590
     26 C          -5.7583    3.4662   51.5000 C.3     1  UNL         0.0599
     27 C          -6.5265    4.7641   51.8548 C.3     1  UNL        -0.0364
     28 C          -6.3384    2.8454   50.2090 C.3     1  UNL        -0.0364
     29 C          -5.8051    2.4352   52.6553 C.3     1  UNL        -0.0364
     30 H          -3.3370    3.0128   52.8194 H       1  UNL         0.0581
     31 H          -3.7016    4.7461   52.9267 H       1  UNL         0.0581
     32 H          -1.4263    4.7378   52.3848 H       1  UNL         0.0455
     33 H          -2.1829    4.9875   50.8070 H       1  UNL         0.0455
     34 H          -1.2639    3.5789   49.0260 H       1  UNL         0.0431
     35 H          -2.6845    2.6387   49.5126 H       1  UNL         0.0431
     36 H          -1.1219    1.2676   48.1608 H       1  UNL         0.0288
     37 H          -1.3900    0.6111   49.7699 H       1  UNL         0.0288
     38 H           0.9370    0.3966   49.4158 H       1  UNL         0.0402
     39 H           1.9539    1.9807   51.1224 H       1  UNL         0.0288
     40 H           0.5561    1.0403   51.6297 H       1  UNL         0.0288
     41 H           0.5710    4.0039   50.8749 H       1  UNL         0.0431
     42 H           0.2746    3.2891   52.4638 H       1  UNL         0.0431
     43 H           0.7773    1.1755   46.8856 H       1  UNL         0.1504
     44 H           2.9364    3.0160   46.3623 H       1  UNL         0.0624
     45 H           4.0772    2.6083   44.2513 H       1  UNL         0.0626
     46 H           4.3084    1.1940   42.2291 H       1  UNL         0.0623
     47 H           2.4763   -0.3598   41.5719 H       1  UNL         0.0623
     48 H           0.4102   -0.5001   42.9556 H       1  UNL         0.0623
     49 H           0.1720    0.9074   44.9857 H       1  UNL         0.0626
     50 H           1.8641    4.1263   43.5896 H       1  UNL         0.0643
     51 H           0.6512    6.2703   43.1452 H       1  UNL         0.0624
     52 H          -0.6558    7.3266   45.0135 H       1  UNL         0.0639
     53 H          -0.6931    6.1880   47.2572 H       1  UNL         0.0840
     54 H          -6.3728    5.5310   51.0848 H       1  UNL         0.0260
     55 H          -6.2018    5.1753   52.8182 H       1  UNL         0.0260
     56 H          -7.6039    4.5692   51.9276 H       1  UNL         0.0260
     57 H          -6.2802    3.5555   49.3739 H       1  UNL         0.0260
     58 H          -7.3910    2.5661   50.3440 H       1  UNL         0.0260
     59 H          -5.7817    1.9431   49.9250 H       1  UNL         0.0260
     60 H          -5.4717    2.8770   53.6025 H       1  UNL         0.0260
     61 H          -5.1646    1.5718   52.4345 H       1  UNL         0.0260
     62 H          -6.8281    2.0676   52.8055 H       1  UNL         0.0260
@<TRIPOS>BOND
     1     1     2    1
     2     1    26    1
     3     2     3    1
     4     2    30    1
     5     2    31    1
     6     3     4    1
     7     3    32    1
     8     3    33    1
     9     4     5    1
    10     4     9    1
    11     5     6    1
    12     5    34    1
    13     5    35    1
    14     6     7    1
    15     6    36    1
    16     6    37    1
    17     7     8    1
    18     7    10    1
    19     7    38    1
    20     8     9    1
    21     8    39    1
    22     8    40    1
    23     9    41    1
    24     9    42    1
    25    10    11    2
    26    10    12   am
    27    12    13    1
    28    12    43    1
    29    13    14    1
    30    13    20    1
    31    13    44    1
    32    14    15   ar
    33    14    19   ar
    34    15    16   ar
    35    15    45    1
    36    16    17   ar
    37    16    46    1
    38    17    18   ar
    39    17    47    1
    40    18    19   ar
    41    18    48    1
    42    19    49    1
    43    20    21   ar
    44    20    25   ar
    45    21    22   ar
    46    21    50    1
    47    22    23   ar
    48    22    51    1
    49    23    24   ar
    50    23    52    1
    51    24    25   ar
    52    24    53    1
    53    26    27    1
    54    26    28    1
    55    26    29    1
    56    27    54    1
    57    27    55    1
    58    27    56    1
    59    28    57    1
    60    28    58    1
    61    28    59    1
    62    29    60    1
    63    29    61    1
    64    29    62    1
@<TRIPOS>SUBSTRUCTURE
     1 UNL         1 TEMP              0 ****  ****    0 ROOT


##########                                Name:    ZINC000493443319
##########                DOCK_Rotatable_Bonds:                   6
##########                         Heavy_Atoms:                  25
##########                    Molecular_Weight:             348.399
##########                DOCK_Rotatable_Bonds:                   6
##########                       Formal_Charge:        -3.27826e-07
##########                     HBond_Acceptors:                   7
##########                        HBond_Donors:                   0
##########                         Heavy_Atoms:                  25
##########                          Grid_Score:          -26.795481
##########                     Grid_vdw_energy:          -26.956694
##########                      Grid_es_energy:            0.161214
##########           Internal_energy_repulsive:           53.040165

@<TRIPOS>MOLECULE
ZINC000493443319
 49 51 1 0 0
SMALL
USER_CHARGES


@<TRIPOS>ATOM
      1 C1         -5.3767    3.9829   53.9917 C.3     1  <0>        -0.1500
      2 C2         -4.2718    4.1507   52.9468 C.3     1  <0>         0.0500
      3 O3         -4.1776    2.9629   52.1581 O.3     1  <0>        -0.3200
      4 C4         -3.2033    2.9268   51.2102 C.ar    1  <0>         0.1000
      5 C5         -2.3104    3.9817   51.0930 C.ar    1  <0>        -0.1700
      6 C6         -1.3207    3.9452   50.1302 C.ar    1  <0>        -0.1100
      7 C7         -1.2194    2.8533   49.2809 C.ar    1  <0>         0.0800
      8 O8         -0.2452    2.8175   48.3328 O.3     1  <0>        -0.3000
      9 C9          1.0563    2.4053   48.7552 C.3     1  <0>         0.1000
     10 C10         1.7158    3.5342   49.5500 C.3     1  <0>        -0.1800
     11 C11         0.9358    1.1622   49.6389 C.3     1  <0>        -0.1500
     12 C12         1.8979    2.0833   47.5472 C.2     1  <0>         0.5100
     13 O13         2.9881    2.5974   47.4133 O.2     1  <0>        -0.5200
     14 N14         1.4389    1.2240   46.6159 N.am    1  <0>        -0.6000
     15 C15         0.1195    0.6001   46.7753 C.3     1  <0>         0.0700
     16 C16        -0.7358    0.9114   45.5366 C.3     1  <0>         0.1300
     17 N17         0.1001    0.6664   44.3530 N.am    1  <0>        -0.6300
     18 C18        -0.1654   -0.1042   43.2969 C.2     1  <0>         0.6500
     19 O19        -1.2548   -0.6026   43.0942 O.2     1  <0>        -0.5200
     20 O20         0.8835   -0.2765   42.4812 O.3     1  <0>        -0.3200
     21 C21         2.0061    0.5236   42.9573 C.3     1  <0>         0.0500
     22 C22         1.4440    1.2600   44.1840 C.3     1  <0>         0.0800
     23 H23         1.3901    2.3356   44.0157 H       1  <0>         0.1100
     24 C24         2.2554    0.9126   45.4326 C.3     1  <0>         0.1000
     25 C25        -2.1113    1.7977   49.3991 C.ar    1  <0>        -0.1800
     26 C26        -3.0987    1.8326   50.3645 C.ar    1  <0>        -0.1100
     27 H27        -5.4486    4.8889   54.5934 H       1  <0>         0.0800
     28 H28        -6.3275    3.8037   53.4897 H       1  <0>         0.0700
     29 H29        -5.1412    3.1363   54.6367 H       1  <0>         0.0700
     30 H30        -4.5073    4.9974   52.3019 H       1  <0>         0.0600
     31 H31        -3.3211    4.3299   53.4489 H       1  <0>         0.0600
     32 H32        -2.3894    4.8320   51.7543 H       1  <0>         0.1400
     33 H33        -0.6259    4.7670   50.0384 H       1  <0>         0.1400
     34 H34         1.1809    3.6781   50.4888 H       1  <0>         0.0800
     35 H35         2.7532    3.2732   49.7593 H       1  <0>         0.0900
     36 H36         1.6831    4.4554   48.9682 H       1  <0>         0.0800
     37 H37         0.3868    0.3876   49.1034 H       1  <0>         0.0800
     38 H38         1.9316    0.7956   49.8880 H       1  <0>         0.0900
     39 H39         0.4032    1.4178   50.5549 H       1  <0>         0.0900
     40 H40         0.2363   -0.4789   46.8759 H       1  <0>         0.0800
     41 H41        -0.3678    0.9999   47.6646 H       1  <0>         0.1300
     42 H42        -1.6086    0.2586   45.5153 H       1  <0>         0.1100
     43 H43        -1.0524    1.9542   45.5573 H       1  <0>         0.0800
     44 H44         2.8383   -0.1187   43.2453 H       1  <0>         0.1100
     45 H45         2.3186    1.2361   42.1938 H       1  <0>         0.1100
     46 H46         3.1718    1.5025   45.4521 H       1  <0>         0.1100
     47 H47         2.5006   -0.1496   45.4286 H       1  <0>         0.0800
     48 H48        -2.0322    0.9473   48.7380 H       1  <0>         0.1600
     49 H49        -3.7932    1.0106   50.4564 H       1  <0>         0.1300
@<TRIPOS>BOND
     1     1     2    1
     2     1    27    1
     3     1    28    1
     4     1    29    1
     5     2     3    1
     6     2    30    1
     7     2    31    1
     8     3     4    1
     9     4    26   ar
    10     4     5   ar
    11     5     6   ar
    12     5    32    1
    13     6     7   ar
    14     6    33    1
    15     7     8    1
    16     7    25   ar
    17     8     9    1
    18     9    10    1
    19     9    11    1
    20     9    12    1
    21    10    34    1
    22    10    35    1
    23    10    36    1
    24    11    37    1
    25    11    38    1
    26    11    39    1
    27    12    13    2
    28    12    14   am
    29    14    24    1
    30    14    15    1
    31    15    16    1
    32    15    40    1
    33    15    41    1
    34    16    17    1
    35    16    42    1
    36    16    43    1
    37    17    22    1
    38    17    18   am
    39    18    19    2
    40    18    20    1
    41    20    21    1
    42    21    22    1
    43    21    44    1
    44    21    45    1
    45    22    23    1
    46    22    24    1
    47    24    46    1
    48    24    47    1
    49    25    26   ar
    50    25    48    1
    51    26    49    1
@<TRIPOS>SUBSTRUCTURE
     1 <0>         1 TEMP              0 ****  ****    0 ROOT


##########                                Name:    ZINC000225856071
##########                DOCK_Rotatable_Bonds:                   6
##########                         Heavy_Atoms:                  29
##########                    Molecular_Weight:             409.549
##########                DOCK_Rotatable_Bonds:                   6
##########                       Formal_Charge:         -0.00999989
##########                     HBond_Acceptors:                   5
##########                        HBond_Donors:                   1
##########                         Heavy_Atoms:                  29
##########                          Grid_Score:          -26.770651
##########                     Grid_vdw_energy:          -26.045918
##########                      Grid_es_energy:           -0.724734
##########           Internal_energy_repulsive:           32.497662

@<TRIPOS>MOLECULE
ZINC000225856071
 56 58 1 0 0
SMALL
USER_CHARGES


@<TRIPOS>ATOM
      1 C1        -16.9484   -2.7373   56.8060 C.3     1  ZINC000225856071    0.0200
      2 O2        -16.3245   -1.6505   57.4925 O.3     1  ZINC000225856071   -0.3100
      3 C3        -15.0405   -1.8331   57.8989 C.ar    1  ZINC000225856071    0.1900
      4 C4        -14.0032   -1.7490   56.9821 C.ar    1  ZINC000225856071   -0.2300
      5 C5        -12.6986   -1.9345   57.3978 C.ar    1  ZINC000225856071    0.0700
      6 C6        -11.5710   -1.8434   56.4022 C.3     1  ZINC000225856071   -0.1800
      7 C7        -12.4268   -2.2032   58.7264 C.ar    1  ZINC000225856071   -0.7100
      8 S8        -10.7622   -2.4388   59.2535 S.o2    1  ZINC000225856071    2.7000
      9 O9        -10.7746   -2.3544   60.6719 O.2     1  ZINC000225856071   -0.9600
     10 O10       -10.2738   -3.5705   58.5465 O.2     1  ZINC000225856071   -0.9500
     11 N11        -9.8890   -1.1387   58.7152 N.am    1  ZINC000225856071   -1.1100
     12 C12       -10.2468    0.2142   59.1489 C.3     1  ZINC000225856071    0.2400
     13 H13       -11.3301    0.2912   59.2421 H       1  ZINC000225856071    0.1100
     14 C14        -9.7577    1.2134   58.1325 C.ar    1  ZINC000225856071   -0.1000
     15 C15        -8.4327    1.6078   58.1331 C.ar    1  ZINC000225856071   -0.1000
     16 C16        -7.9840    2.5243   57.2007 C.ar    1  ZINC000225856071   -0.1200
     17 C17        -8.8601    3.0463   56.2674 C.ar    1  ZINC000225856071   -0.1100
     18 C18       -10.1848    2.6513   56.2663 C.ar    1  ZINC000225856071   -0.1100
     19 C19       -10.6326    1.7314   57.1959 C.ar    1  ZINC000225856071   -0.1000
     20 C20        -9.6064    0.4999   60.4828 C.ar    1  ZINC000225856071   -0.0900
     21 C21        -8.5576   -0.2827   60.9276 C.ar    1  ZINC000225856071   -0.1000
     22 C22        -7.9700   -0.0205   62.1514 C.ar    1  ZINC000225856071   -0.1200
     23 C23        -8.4312    1.0243   62.9297 C.ar    1  ZINC000225856071   -0.0800
     24 C24        -7.7910    1.3097   64.2638 C.3     1  ZINC000225856071   -0.1200
     25 C25        -9.4795    1.8080   62.4842 C.ar    1  ZINC000225856071   -0.1200
     26 C26       -10.0643    1.5483   61.2592 C.ar    1  ZINC000225856071   -0.0600
     27 C27       -11.2069    2.4025   60.7734 C.3     1  ZINC000225856071   -0.1300
     28 C28       -13.4593   -2.2871   59.6425 C.ar    1  ZINC000225856071    0.0200
     29 C29       -14.7649   -2.0982   59.2327 C.ar    1  ZINC000225856071   -0.1400
     30 C30       -15.8895   -2.1892   60.2317 C.3     1  ZINC000225856071   -0.1100
     31 H31       -16.9682   -3.6133   57.4544 H       1  ZINC000225856071    0.0600
     32 H32       -17.9682   -2.4605   56.5382 H       1  ZINC000225856071    0.1000
     33 H33       -16.3849   -2.9673   55.9017 H       1  ZINC000225856071    0.0600
     34 H34       -14.2149   -1.5390   55.9441 H       1  ZINC000225856071    0.1400
     35 H35       -11.2097   -0.8160   56.3556 H       1  ZINC000225856071    0.0900
     36 H36       -10.7586   -2.5005   56.7123 H       1  ZINC000225856071    0.1000
     37 H37       -11.9291   -2.1475   55.4187 H       1  ZINC000225856071    0.0800
     38 H38        -9.1407   -1.2728   58.1129 H       1  ZINC000225856071    0.4200
     39 H39        -7.7483    1.1999   58.8622 H       1  ZINC000225856071    0.1200
     40 H40        -6.9490    2.8330   57.2016 H       1  ZINC000225856071    0.1200
     41 H41        -8.5096    3.7629   55.5395 H       1  ZINC000225856071    0.1200
     42 H42       -10.8693    3.0593   55.5374 H       1  ZINC000225856071    0.1200
     43 H43       -11.6675    1.4228   57.1950 H       1  ZINC000225856071    0.1200
     44 H44        -8.1972   -1.0992   60.3194 H       1  ZINC000225856071    0.1200
     45 H45        -7.1509   -0.6325   62.4992 H       1  ZINC000225856071    0.1200
     46 H46        -6.9691    2.0130   64.1295 H       1  ZINC000225856071    0.0700
     47 H47        -8.5317    1.7410   64.9373 H       1  ZINC000225856071    0.0700
     48 H48        -7.4093    0.3818   64.6896 H       1  ZINC000225856071    0.0700
     49 H49        -9.8395    2.6247   63.0923 H       1  ZINC000225856071    0.1200
     50 H50       -10.8143    3.2441   60.2027 H       1  ZINC000225856071    0.0800
     51 H51       -11.8617    1.8063   60.1379 H       1  ZINC000225856071    0.0700
     52 H52       -11.7711    2.7750   61.6285 H       1  ZINC000225856071    0.0700
     53 H53       -13.2445   -2.4968   60.6799 H       1  ZINC000225856071    0.1500
     54 H54       -16.0743   -1.2046   60.6615 H       1  ZINC000225856071    0.0700
     55 H55       -16.7915   -2.5426   59.7321 H       1  ZINC000225856071    0.0700
     56 H56       -15.6162   -2.8861   61.0240 H       1  ZINC000225856071    0.0700
@<TRIPOS>BOND
     1     1     2    1
     2     1    31    1
     3     1    32    1
     4     1    33    1
     5     2     3    1
     6     3    29   ar
     7     3     4   ar
     8     4     5   ar
     9     4    34    1
    10     5     6    1
    11     5     7   ar
    12     6    35    1
    13     6    36    1
    14     6    37    1
    15     7     8    1
    16     7    28   ar
    17     8     9    2
    18     8    10    2
    19     8    11   am
    20    11    12    1
    21    11    38    1
    22    12    13    1
    23    12    14    1
    24    12    20    1
    25    14    19   ar
    26    14    15   ar
    27    15    16   ar
    28    15    39    1
    29    16    17   ar
    30    16    40    1
    31    17    18   ar
    32    17    41    1
    33    18    19   ar
    34    18    42    1
    35    19    43    1
    36    20    26   ar
    37    20    21   ar
    38    21    22   ar
    39    21    44    1
    40    22    23   ar
    41    22    45    1
    42    23    24    1
    43    23    25   ar
    44    24    46    1
    45    24    47    1
    46    24    48    1
    47    25    26   ar
    48    25    49    1
    49    26    27    1
    50    27    50    1
    51    27    51    1
    52    27    52    1
    53    28    29   ar
    54    28    53    1
    55    29    30    1
    56    30    54    1
    57    30    55    1
    58    30    56    1
@<TRIPOS>SUBSTRUCTURE
     1 ZINC000225856071        1 TEMP              0 ****  ****    0 ROOT


##########                                Name:    ZINC000463474628
##########                DOCK_Rotatable_Bonds:                   5
##########                         Heavy_Atoms:                  25
##########                    Molecular_Weight:              407.35
##########                DOCK_Rotatable_Bonds:                   5
##########                       Formal_Charge:           0.0200004
##########                     HBond_Acceptors:                   4
##########                        HBond_Donors:                   0
##########                         Heavy_Atoms:                  25
##########                          Grid_Score:          -26.747084
##########                     Grid_vdw_energy:          -25.963511
##########                      Grid_es_energy:           -0.783573
##########           Internal_energy_repulsive:           67.929932

@<TRIPOS>MOLECULE
ZINC000463474628
 52 54 1 0 0
SMALL
USER_CHARGES


@<TRIPOS>ATOM
      1 C1        -11.3149    5.4014   52.6821 C.3     1  ZINC000463474628   -0.1400
      2 C2         -9.8852    5.0143   52.2984 C.3     1  ZINC000463474628   -0.1300
      3 C3         -9.7479    3.4906   52.3133 C.3     1  ZINC000463474628    0.1400
      4 H4        -10.4724    3.0466   51.6306 H       1  ZINC000463474628    0.0800
      5 C5         -9.9783    2.9569   53.7429 C.3     1  ZINC000463474628   -0.1300
      6 C6         -8.9352    1.8142   53.8595 C.3     1  ZINC000463474628   -0.1300
      7 C7         -7.7526    2.3878   53.0397 C.3     1  ZINC000463474628    0.0900
      8 N8         -8.3855    3.1074   51.9152 N.am    1  ZINC000463474628   -0.6100
      9 C9         -7.8083    3.3692   50.7258 C.2     1  ZINC000463474628    0.5300
     10 O10        -8.4248    3.9702   49.8717 O.2     1  ZINC000463474628   -0.5100
     11 C11        -6.3966    2.9151   50.4572 C.3     1  ZINC000463474628   -0.1200
     12 H12        -6.0373    3.3706   49.5344 H       1  ZINC000463474628    0.1000
     13 C13        -6.3677    1.3912   50.3195 C.3     1  ZINC000463474628   -0.1000
     14 C14        -4.9402    0.9318   50.0141 C.3     1  ZINC000463474628   -0.1300
     15 C15        -4.0209    1.3300   51.1731 C.3     1  ZINC000463474628    0.0900
     16 N16        -4.1531    2.7746   51.4066 N.am    1  ZINC000463474628   -0.6000
     17 C17        -3.0650    3.5698   51.4236 C.2     1  ZINC000463474628    0.5700
     18 O18        -3.1877    4.7635   51.6177 O.2     1  ZINC000463474628   -0.5200
     19 C19        -1.7229    2.9905   51.2061 C.ar    1  ZINC000463474628   -0.1200
     20 C20        -1.3702    2.4910   49.9513 C.ar    1  ZINC000463474628   -0.0800
     21 C21        -0.1162    1.9515   49.7545 C.ar    1  ZINC000463474628   -0.1000
     22 C22         0.7921    1.9046   50.7985 C.ar    1  ZINC000463474628   -0.0700
     23 Br23        2.5095    1.1639   50.5200 Br      1  ZINC000463474628   -0.0400
     24 C24         0.4480    2.3986   52.0458 C.ar    1  ZINC000463474628   -0.0900
     25 C25        -0.8006    2.9456   52.2534 C.ar    1  ZINC000463474628   -0.0300
     26 C26        -1.1735    3.4825   53.6113 C.3     1  ZINC000463474628   -0.1300
     27 C27        -5.4937    3.3365   51.6208 C.3     1  ZINC000463474628    0.1200
     28 H28       -11.9561    5.3409   51.8029 H       1  ZINC000463474628    0.0700
     29 H29       -11.6830    4.7185   53.4478 H       1  ZINC000463474628    0.0600
     30 H30       -11.3240    6.4203   53.0691 H       1  ZINC000463474628    0.0300
     31 H31        -9.6631    5.3894   51.2993 H       1  ZINC000463474628    0.0600
     32 H32        -9.1868    5.4491   53.0133 H       1  ZINC000463474628    0.0700
     33 H33        -9.7826    3.7346   54.4811 H       1  ZINC000463474628    0.0800
     34 H34       -10.9907    2.5674   53.8506 H       1  ZINC000463474628    0.0800
     35 H35        -8.6481    1.6519   54.8984 H       1  ZINC000463474628    0.0900
     36 H36        -9.3115    0.8945   53.4116 H       1  ZINC000463474628    0.0800
     37 H37        -7.1663    3.0750   53.6495 H       1  ZINC000463474628    0.0700
     38 H38        -7.1235    1.5801   52.6654 H       1  ZINC000463474628    0.0800
     39 H39        -6.7043    0.9360   51.2509 H       1  ZINC000463474628    0.0800
     40 H40        -7.0284    1.0873   49.5076 H       1  ZINC000463474628    0.0700
     41 H41        -4.9246   -0.1514   49.8931 H       1  ZINC000463474628    0.0800
     42 H42        -4.5940    1.4060   49.0957 H       1  ZINC000463474628    0.0700
     43 H43        -4.3105    0.7866   52.0725 H       1  ZINC000463474628    0.0800
     44 H44        -2.9878    1.0942   50.9178 H       1  ZINC000463474628    0.1000
     45 H45        -2.0779    2.5267   49.1362 H       1  ZINC000463474628    0.1400
     46 H46         0.1578    1.5645   48.7842 H       1  ZINC000463474628    0.1400
     47 H47         1.1605    2.3589   52.8565 H       1  ZINC000463474628    0.1400
     48 H48        -0.9899    4.5565   53.6403 H       1  ZINC000463474628    0.0700
     49 H49        -2.2292    3.2890   53.8012 H       1  ZINC000463474628    0.0900
     50 H50        -0.5708    2.9902   54.3747 H       1  ZINC000463474628    0.0700
     51 H51        -5.4320    4.4240   51.6611 H       1  ZINC000463474628    0.1000
     52 H52        -5.9039    2.9568   52.5566 H       1  ZINC000463474628    0.0800
@<TRIPOS>BOND
     1     1     2    1
     2     1    28    1
     3     1    29    1
     4     1    30    1
     5     2     3    1
     6     2    31    1
     7     2    32    1
     8     3     4    1
     9     3     8    1
    10     3     5    1
    11     5     6    1
    12     5    33    1
    13     5    34    1
    14     6     7    1
    15     6    35    1
    16     6    36    1
    17     7     8    1
    18     7    37    1
    19     7    38    1
    20     8     9   am
    21     9    10    2
    22     9    11    1
    23    11    12    1
    24    11    27    1
    25    11    13    1
    26    13    14    1
    27    13    39    1
    28    13    40    1
    29    14    15    1
    30    14    41    1
    31    14    42    1
    32    15    16    1
    33    15    43    1
    34    15    44    1
    35    16    17   am
    36    16    27    1
    37    17    18    2
    38    17    19    1
    39    19    25   ar
    40    19    20   ar
    41    20    21   ar
    42    20    45    1
    43    21    22   ar
    44    21    46    1
    45    22    23    1
    46    22    24   ar
    47    24    25   ar
    48    24    47    1
    49    25    26    1
    50    26    48    1
    51    26    49    1
    52    26    50    1
    53    27    51    1
    54    27    52    1
@<TRIPOS>SUBSTRUCTURE
     1 ZINC000463474628        1 TEMP              0 ****  ****    0 ROOT


##########                                Name:    ZINC000426607143
##########                DOCK_Rotatable_Bonds:                   3
##########                         Heavy_Atoms:                  25
##########                    Molecular_Weight:             419.302
##########                DOCK_Rotatable_Bonds:                   3
##########                       Formal_Charge:         1.49012e-07
##########                     HBond_Acceptors:                   7
##########                        HBond_Donors:                   0
##########                         Heavy_Atoms:                  25
##########                          Grid_Score:          -26.682783
##########                     Grid_vdw_energy:          -25.763605
##########                      Grid_es_energy:           -0.919178
##########           Internal_energy_repulsive:           30.489075

@<TRIPOS>MOLECULE
ZINC000426607143
 40 43 1 0 0
SMALL
USER_CHARGES


@<TRIPOS>ATOM
      1 C1          0.7248    5.3949   40.9739 C.3     1  ZINC000426607143   -0.0900
      2 C2          1.8603    4.4104   41.0863 C.2     1  ZINC000426607143    0.1600
      3 N3          2.8522    4.4184   40.2493 N.2     1  ZINC000426607143   -0.4600
      4 S4          3.9122    3.1755   40.7029 S.3     1  ZINC000426607143    0.2900
      5 C5          2.9890    2.6392   42.0518 C.2     1  ZINC000426607143   -0.1300
      6 C6          3.3202    1.5097   42.9929 C.3     1  ZINC000426607143   -0.0800
      7 C7          1.8979    3.4554   42.0936 C.2     1  ZINC000426607143   -0.1200
      8 C8          0.8364    3.3280   43.1216 C.2     1  ZINC000426607143    0.2500
      9 N9         -0.2395    4.0653   43.2228 N.2     1  ZINC000426607143   -0.3700
     10 O10        -0.9042    3.7044   44.1710 O.3     1  ZINC000426607143    0.0900
     11 C11        -0.3072    2.6780   44.7848 C.2     1  ZINC000426607143    0.2000
     12 C12        -0.8121    1.9464   46.0016 C.3     1  ZINC000426607143   -0.0300
     13 H13        -1.8957    1.8373   45.9577 H       1  ZINC000426607143    0.1600
     14 C14        -0.1332    0.5623   46.1215 C.3     1  ZINC000426607143   -0.1200
     15 C15         0.0295    0.4227   47.6513 C.3     1  ZINC000426607143    0.1000
     16 N16         0.0710    1.7959   48.1676 N.am    1  ZINC000426607143   -0.5800
     17 C17         0.5417    2.1481   49.4378 C.ar    1  ZINC000426607143    0.1700
     18 C18         1.8688    2.5170   49.6103 C.ar    1  ZINC000426607143   -0.1000
     19 C19         2.3305    2.8641   50.8653 C.ar    1  ZINC000426607143   -0.1000
     20 C20         1.4727    2.8440   51.9494 C.ar    1  ZINC000426607143   -0.1000
     21 C21         0.1499    2.4771   51.7816 C.ar    1  ZINC000426607143   -0.0900
     22 C22        -0.3198    2.1348   50.5282 C.ar    1  ZINC000426607143   -0.0800
     23 Br23       -2.1287    1.6330   50.2994 Br      1  ZINC000426607143   -0.0400
     24 C24        -0.4040    2.6738   47.2638 C.2     1  ZINC000426607143    0.5300
     25 O25        -0.4880    3.8714   47.4362 O.2     1  ZINC000426607143   -0.4900
     26 N26         0.7965    2.4240   44.1268 N.2     1  ZINC000426607143   -0.4600
     27 H27         0.9609    6.2892   41.5506 H       1  ZINC000426607143    0.0900
     28 H28         0.5802    5.6649   39.9278 H       1  ZINC000426607143    0.0800
     29 H29        -0.1879    4.9427   41.3620 H       1  ZINC000426607143    0.1100
     30 H30         4.2644    1.0537   42.6952 H       1  ZINC000426607143    0.0800
     31 H31         3.4075    1.8965   44.0081 H       1  ZINC000426607143    0.0900
     32 H32         2.5279    0.7619   42.9557 H       1  ZINC000426607143    0.0900
     33 H33        -0.7760   -0.2232   45.7242 H       1  ZINC000426607143    0.1100
     34 H34         0.8368    0.5594   45.6242 H       1  ZINC000426607143    0.1000
     35 H35        -0.8204   -0.1135   48.0736 H       1  ZINC000426607143    0.0900
     36 H36         0.9586   -0.0968   47.8860 H       1  ZINC000426607143    0.0900
     37 H37         2.5399    2.5323   48.7643 H       1  ZINC000426607143    0.1400
     38 H38         3.3629    3.1511   50.9998 H       1  ZINC000426607143    0.1400
     39 H39         1.8366    3.1151   52.9294 H       1  ZINC000426607143    0.1400
     40 H40        -0.5177    2.4624   52.6305 H       1  ZINC000426607143    0.1400
@<TRIPOS>BOND
     1     1     2    1
     2     1    27    1
     3     1    28    1
     4     1    29    1
     5     2     7    1
     6     2     3    2
     7     3     4    1
     8     4     5    1
     9     5     6    1
    10     5     7    2
    11     6    30    1
    12     6    31    1
    13     6    32    1
    14     7     8    1
    15     8    26    1
    16     8     9    2
    17     9    10    1
    18    10    11    1
    19    11    12    1
    20    11    26    2
    21    12    13    1
    22    12    24    1
    23    12    14    1
    24    14    15    1
    25    14    33    1
    26    14    34    1
    27    15    16    1
    28    15    35    1
    29    15    36    1
    30    16    17    1
    31    16    24   am
    32    17    22   ar
    33    17    18   ar
    34    18    19   ar
    35    18    37    1
    36    19    20   ar
    37    19    38    1
    38    20    21   ar
    39    20    39    1
    40    21    22   ar
    41    21    40    1
    42    22    23    1
    43    24    25    2
@<TRIPOS>SUBSTRUCTURE
     1 ZINC000426607143        1 TEMP              0 ****  ****    0 ROOT


##########                                Name:    ZINC000543429378
##########                DOCK_Rotatable_Bonds:                   6
##########                         Heavy_Atoms:                  29
##########                    Molecular_Weight:             406.408
##########                DOCK_Rotatable_Bonds:                   6
##########                       Formal_Charge:           0.0100003
##########                     HBond_Acceptors:                   9
##########                        HBond_Donors:                   1
##########                         Heavy_Atoms:                  29
##########                          Grid_Score:          -26.615570
##########                     Grid_vdw_energy:          -26.749447
##########                      Grid_es_energy:            0.133877
##########           Internal_energy_repulsive:           42.668434

@<TRIPOS>MOLECULE
ZINC000543429378
 50 53 1 0 0
SMALL
USER_CHARGES


@<TRIPOS>ATOM
      1 O1         -1.9067    2.5156   48.8378 O.2     1  ZINC000543429378   -0.5100
      2 C2         -1.7570    1.5998   49.6188 C.2     1  ZINC000543429378    0.5200
      3 N3         -0.6233    0.8715   49.5942 N.am    1  ZINC000543429378   -0.6600
      4 C4          0.3787    1.1682   48.6637 C.ar    1  ZINC000543429378    0.1900
      5 C5          0.0706    1.2483   47.3118 C.ar    1  ZINC000543429378   -0.1600
      6 C6          1.0600    1.5417   46.3932 C.ar    1  ZINC000543429378   -0.0600
      7 C7          2.3578    1.7558   46.8163 C.ar    1  ZINC000543429378   -0.2100
      8 C8          2.6714    1.6771   48.1662 C.ar    1  ZINC000543429378    0.1300
      9 O9          3.9483    1.8879   48.5809 O.3     1  ZINC000543429378   -0.3100
     10 C10         4.2128    1.7242   49.9757 C.3     1  ZINC000543429378    0.6000
     11 F11         5.5733    1.9389   50.2208 F       1  ZINC000543429378   -0.1600
     12 F12         3.4561    2.6474   50.7053 F       1  ZINC000543429378   -0.1300
     13 F13         3.8678    0.4260   50.3665 F       1  ZINC000543429378   -0.1600
     14 C14         1.6807    1.3886   49.0912 C.ar    1  ZINC000543429378   -0.1300
     15 C15        -2.8363    1.2803   50.6209 C.3     1  ZINC000543429378    0.0700
     16 H16        -2.6460    0.3074   51.0739 H       1  ZINC000543429378    0.1200
     17 C17        -4.2235    1.2767   49.9220 C.3     1  ZINC000543429378   -0.1200
     18 C18        -5.1193    1.9143   50.9952 C.3     1  ZINC000543429378   -0.1000
     19 H19        -5.3739    1.1935   51.7721 H       1  ZINC000543429378    0.0900
     20 C20        -6.3631    2.6115   50.4709 C.3     1  ZINC000543429378   -0.1100
     21 C21        -7.0485    3.2855   51.6701 C.3     1  ZINC000543429378   -0.1200
     22 C22        -6.1158    4.2733   52.3648 C.3     1  ZINC000543429378   -0.1100
     23 C23        -4.7951    3.6021   52.7769 C.3     1  ZINC000543429378   -0.0900
     24 C24        -4.1642    3.0124   51.5371 C.3     1  ZINC000543429378    0.0700
     25 H25        -4.0726    3.7880   50.7767 H       1  ZINC000543429378    0.0900
     26 N26        -2.8777    2.3295   51.6728 N.3     1  ZINC000543429378   -0.4300
     27 C27        -1.8265    3.2162   51.5162 C.ar    1  ZINC000543429378    0.5000
     28 N28        -0.6324    2.8939   51.9914 N.ar    1  ZINC000543429378   -0.5300
     29 C29         0.3934    3.7183   51.8581 C.ar    1  ZINC000543429378    0.1800
     30 C30         0.2071    4.9306   51.2125 C.ar    1  ZINC000543429378   -0.2500
     31 C31        -1.0549    5.2360   50.7276 C.ar    1  ZINC000543429378    0.1800
     32 N32        -2.0369    4.3646   50.8898 N.ar    1  ZINC000543429378   -0.5300
     33 H33        -0.5020    0.1417   50.2215 H       1  ZINC000543429378    0.4200
     34 H34        -0.9429    1.0805   46.9785 H       1  ZINC000543429378    0.1400
     35 H35         0.8186    1.6034   45.3423 H       1  ZINC000543429378    0.1400
     36 H36         3.1292    1.9844   46.0958 H       1  ZINC000543429378    0.1400
     37 H37         1.9229    1.3270   50.1420 H       1  ZINC000543429378    0.1500
     38 H38        -4.2059    1.8846   49.0175 H       1  ZINC000543429378    0.0800
     39 H39        -4.5454    0.2592   49.6999 H       1  ZINC000543429378    0.0900
     40 H40        -6.0835    3.3634   49.7328 H       1  ZINC000543429378    0.0700
     41 H41        -7.0359    1.8813   50.0213 H       1  ZINC000543429378    0.0700
     42 H42        -7.9344    3.8167   51.3219 H       1  ZINC000543429378    0.0600
     43 H43        -7.3516    2.5196   52.3840 H       1  ZINC000543429378    0.0600
     44 H44        -5.9000    5.0980   51.6855 H       1  ZINC000543429378    0.0600
     45 H45        -6.6096    4.6651   53.2540 H       1  ZINC000543429378    0.0700
     46 H46        -4.1258    4.3407   53.2180 H       1  ZINC000543429378    0.0700
     47 H47        -4.9924    2.8048   53.4936 H       1  ZINC000543429378    0.0700
     48 H48         1.3642    3.4503   52.2479 H       1  ZINC000543429378    0.1600
     49 H49         1.0274    5.6224   51.0904 H       1  ZINC000543429378    0.1400
     50 H50        -1.2336    6.1724   50.2201 H       1  ZINC000543429378    0.1600
@<TRIPOS>BOND
     1     1     2    2
     2     2     3   am
     3     2    15    1
     4     3     4    1
     5     3    33    1
     6     4    14   ar
     7     4     5   ar
     8     5     6   ar
     9     5    34    1
    10     6     7   ar
    11     6    35    1
    12     7     8   ar
    13     7    36    1
    14     8     9    1
    15     8    14   ar
    16     9    10    1
    17    10    11    1
    18    10    12    1
    19    10    13    1
    20    14    37    1
    21    15    16    1
    22    15    26    1
    23    15    17    1
    24    17    18    1
    25    17    38    1
    26    17    39    1
    27    18    19    1
    28    18    24    1
    29    18    20    1
    30    20    21    1
    31    20    40    1
    32    20    41    1
    33    21    22    1
    34    21    42    1
    35    21    43    1
    36    22    23    1
    37    22    44    1
    38    22    45    1
    39    23    24    1
    40    23    46    1
    41    23    47    1
    42    24    25    1
    43    24    26    1
    44    26    27    1
    45    27    32   ar
    46    27    28   ar
    47    28    29   ar
    48    29    30   ar
    49    29    48    1
    50    30    31   ar
    51    30    49    1
    52    31    32   ar
    53    31    50    1
@<TRIPOS>SUBSTRUCTURE
     1 ZINC000543429378        1 TEMP              0 ****  ****    0 ROOT


##########                                Name:    ZINC000371438955
##########                DOCK_Rotatable_Bonds:                   4
##########                         Heavy_Atoms:                  25
##########                    Molecular_Weight:             387.499
##########                DOCK_Rotatable_Bonds:                   4
##########                       Formal_Charge:          -0.0299995
##########                     HBond_Acceptors:                   9
##########                        HBond_Donors:                   1
##########                         Heavy_Atoms:                  25
##########                          Grid_Score:          -26.506760
##########                     Grid_vdw_energy:          -24.917200
##########                      Grid_es_energy:           -1.589559
##########           Internal_energy_repulsive:           18.793011

@<TRIPOS>MOLECULE
ZINC000371438955
 47 49 1 0 0
SMALL
USER_CHARGES


@<TRIPOS>ATOM
      1 C1         -8.1743    2.9336   58.5983 C.3     1  ZINC000371438955   -0.6800
      2 S2         -7.6189    2.8775   56.8723 S.o2    1  ZINC000371438955    2.6000
      3 O3         -6.6701    1.8358   56.6875 O.2     1  ZINC000371438955   -0.9500
      4 O4         -8.7211    3.0299   55.9885 O.2     1  ZINC000371438955   -0.9500
      5 N5         -6.7418    4.2683   56.6751 N.am    1  ZINC000371438955   -0.9900
      6 C6         -7.3884    5.5321   56.8828 C.3     1  ZINC000371438955    0.1300
      7 C7         -8.0587    5.9447   55.5616 C.3     1  ZINC000371438955   -0.1700
      8 C8         -7.0868    6.4929   54.6026 C.3     1  ZINC000371438955    0.1400
      9 N9         -6.0252    5.4982   54.3193 N.am    1  ZINC000371438955   -0.6200
     10 C10        -6.0503    4.7956   53.1694 C.2     1  ZINC000371438955    0.7100
     11 O11        -6.9436    4.9780   52.3650 O.2     1  ZINC000371438955   -0.5800
     12 N12        -5.0853    3.8909   52.9112 N.am    1  ZINC000371438955   -0.7400
     13 C13        -5.1126    3.1273   51.6612 C.3     1  ZINC000371438955    0.2000
     14 H14        -5.5904    3.7347   50.8926 H       1  ZINC000371438955    0.1100
     15 C15        -5.9425    1.8735   51.8756 C.3     1  ZINC000371438955   -0.1300
     16 C16        -6.0096    1.0881   50.5582 C.3     1  ZINC000371438955   -0.1100
     17 S17        -4.3755    0.3429   50.2890 S.3     1  ZINC000371438955   -0.1000
     18 C18        -3.2798    1.6860   50.6198 C.ar    1  ZINC000371438955   -0.1100
     19 C19        -1.9438    1.5454   50.2334 C.ar    1  ZINC000371438955    0.1100
     20 F20        -1.5400    0.4114   49.6201 F       1  ZINC000371438955   -0.1300
     21 C21        -1.0342    2.5545   50.4722 C.ar    1  ZINC000371438955   -0.1300
     22 C22        -1.4519    3.7125   51.1032 C.ar    1  ZINC000371438955   -0.1000
     23 C23        -2.7688    3.8543   51.4823 C.ar    1  ZINC000371438955   -0.1000
     24 C24        -3.7004    2.8440   51.2405 C.ar    1  ZINC000371438955   -0.0800
     25 C25        -4.9695    5.2826   55.2689 C.3     1  ZINC000371438955    0.1000
     26 C26        -5.3065    4.1669   56.2941 C.3     1  ZINC000371438955    0.0900
     27 H27        -7.3074    2.9650   59.2582 H       1  ZINC000371438955    0.1300
     28 H28        -8.7830    3.8241   58.7554 H       1  ZINC000371438955    0.1300
     29 H29        -8.7665    2.0454   58.8184 H       1  ZINC000371438955    0.1300
     30 H30        -8.1422    5.4363   57.6644 H       1  ZINC000371438955    0.0800
     31 H31        -6.6506    6.2806   57.1713 H       1  ZINC000371438955    0.0800
     32 H32        -8.5399    5.0721   55.1199 H       1  ZINC000371438955    0.0800
     33 H33        -8.8173    6.6996   55.7690 H       1  ZINC000371438955    0.0900
     34 H34        -7.5995    6.7473   53.6750 H       1  ZINC000371438955    0.0900
     35 H35        -6.6356    7.3927   55.0208 H       1  ZINC000371438955    0.0700
     36 H36        -4.3726    3.7455   53.5529 H       1  ZINC000371438955    0.4000
     37 H37        -5.4788    1.2563   52.6451 H       1  ZINC000371438955    0.0900
     38 H38        -6.9496    2.1514   52.1864 H       1  ZINC000371438955    0.1000
     39 H39        -6.7661    0.3067   50.6305 H       1  ZINC000371438955    0.1200
     40 H40        -6.2495    1.7627   49.7362 H       1  ZINC000371438955    0.1000
     41 H41        -0.0038    2.4412   50.1693 H       1  ZINC000371438955    0.1400
     42 H42        -0.7454    4.5055   51.2989 H       1  ZINC000371438955    0.1300
     43 H43        -3.0846    4.7615   51.9758 H       1  ZINC000371438955    0.1400
     44 H44        -4.0627    5.0055   54.7312 H       1  ZINC000371438955    0.0800
     45 H45        -4.7867    6.2110   55.8098 H       1  ZINC000371438955    0.0900
     46 H46        -4.6804    4.2849   57.1785 H       1  ZINC000371438955    0.0800
     47 H47        -5.1204    3.1917   55.8442 H       1  ZINC000371438955    0.1000
@<TRIPOS>BOND
     1     1     2    1
     2     1    27    1
     3     1    28    1
     4     1    29    1
     5     2     3    2
     6     2     4    2
     7     2     5   am
     8     5    26    1
     9     5     6    1
    10     6     7    1
    11     6    30    1
    12     6    31    1
    13     7     8    1
    14     7    32    1
    15     7    33    1
    16     8     9    1
    17     8    34    1
    18     8    35    1
    19     9    10   am
    20     9    25    1
    21    10    11    2
    22    10    12   am
    23    12    13    1
    24    12    36    1
    25    13    14    1
    26    13    24    1
    27    13    15    1
    28    15    16    1
    29    15    37    1
    30    15    38    1
    31    16    17    1
    32    16    39    1
    33    16    40    1
    34    17    18    1
    35    18    24   ar
    36    18    19   ar
    37    19    20    1
    38    19    21   ar
    39    21    22   ar
    40    21    41    1
    41    22    23   ar
    42    22    42    1
    43    23    24   ar
    44    23    43    1
    45    25    26    1
    46    25    44    1
    47    25    45    1
    48    26    46    1
    49    26    47    1
@<TRIPOS>SUBSTRUCTURE
     1 ZINC000371438955        1 TEMP              0 ****  ****    0 ROOT


##########                                Name:    ZINC000965273005
##########                DOCK_Rotatable_Bonds:                   7
##########                         Heavy_Atoms:                  27
##########                    Molecular_Weight:             368.436
##########                DOCK_Rotatable_Bonds:                   7
##########                       Formal_Charge:           0.0100003
##########                     HBond_Acceptors:                   7
##########                        HBond_Donors:                   2
##########                         Heavy_Atoms:                  27
##########                          Grid_Score:          -26.504107
##########                     Grid_vdw_energy:          -26.103188
##########                      Grid_es_energy:           -0.400918
##########           Internal_energy_repulsive:            9.260967

@<TRIPOS>MOLECULE
ZINC000965273005
 51 54 1 0 0
SMALL
USER_CHARGES


@<TRIPOS>ATOM
      1 C1         -1.5462    2.4747   56.6662 C.3     1  ZINC000965273005   -0.1200
      2 C2         -0.2939    3.1052   57.2186 C.ar    1  ZINC000965273005   -0.0300
      3 C3          0.7138    2.3114   57.7259 C.ar    1  ZINC000965273005   -0.1200
      4 C4          1.8644    2.8888   58.2335 C.ar    1  ZINC000965273005   -0.0900
      5 C5          2.0125    4.2642   58.2355 C.ar    1  ZINC000965273005   -0.1300
      6 C6          1.0122    5.0697   57.7310 C.ar    1  ZINC000965273005   -0.0900
      7 C7         -0.1484    4.4935   57.2128 C.ar    1  ZINC000965273005   -0.1300
      8 C8         -1.2244    5.3505   56.6707 C.2     1  ZINC000965273005    0.5800
      9 O9         -2.1641    5.6646   57.3748 O.2     1  ZINC000965273005   -0.5200
     10 N10        -1.1633    5.7832   55.3958 N.am    1  ZINC000965273005   -0.6100
     11 C11        -0.0894    5.4742   54.4341 C.3     1  ZINC000965273005    0.0900
     12 C12        -0.7456    5.6388   53.0406 C.3     1  ZINC000965273005    0.1500
     13 H13         0.0023    5.8672   52.2811 H       1  ZINC000965273005    0.1200
     14 N14        -1.5117    4.4443   52.6764 N.am    1  ZINC000965273005   -0.7100
     15 C15        -1.7240    4.1497   51.3785 C.2     1  ZINC000965273005    0.6000
     16 O16        -1.2809    4.8761   50.5097 O.2     1  ZINC000965273005   -0.5400
     17 C17        -2.4934    2.9467   51.0120 C.2     1  ZINC000965273005   -0.2800
     18 C18        -3.6804    2.5289   51.5793 C.2     1  ZINC000965273005    0.1000
     19 N19        -4.0442    1.3942   50.9605 N.pl3   1  ZINC000965273005   -0.3600
     20 C20        -5.2468    0.6092   51.2496 C.3     1  ZINC000965273005    0.1000
     21 N21        -3.0812    1.0884   49.9924 N.2     1  ZINC000965273005   -0.3000
     22 C22        -2.1570    2.0088   50.0103 C.2     1  ZINC000965273005    0.1700
     23 C23        -0.9386    2.0576   49.1248 C.3     1  ZINC000965273005   -0.0800
     24 C24         0.3535    1.4425   49.6664 C.3     1  ZINC000965273005   -0.1700
     25 C25        -0.4248    0.7333   48.5564 C.3     1  ZINC000965273005   -0.1600
     26 C26        -1.6841    6.8510   53.2795 C.3     1  ZINC000965273005    0.0900
     27 H27        -1.1356    7.7881   53.1839 H       1  ZINC000965273005    0.0900
     28 O28        -2.7900    6.8201   52.3750 O.3     1  ZINC000965273005   -0.5500
     29 C29        -2.1595    6.6364   54.7317 C.3     1  ZINC000965273005    0.0600
     30 H30        -1.4502    2.3618   55.5863 H       1  ZINC000965273005    0.0800
     31 H31        -1.6917    1.4956   57.1225 H       1  ZINC000965273005    0.0700
     32 H32        -2.4025    3.1108   56.8903 H       1  ZINC000965273005    0.0700
     33 H33         0.6043    1.2370   57.7271 H       1  ZINC000965273005    0.1300
     34 H34         2.6500    2.2628   58.6300 H       1  ZINC000965273005    0.1300
     35 H35         2.9130    4.7086   58.6331 H       1  ZINC000965273005    0.1300
     36 H36         1.1290    6.1434   57.7336 H       1  ZINC000965273005    0.1300
     37 H37         0.7368    6.1756   54.5497 H       1  ZINC000965273005    0.0900
     38 H38         0.2590    4.4504   54.5707 H       1  ZINC000965273005    0.0900
     39 H39        -1.8661    3.8655   53.3694 H       1  ZINC000965273005    0.4000
     40 H40        -4.2176    3.0234   52.3752 H       1  ZINC000965273005    0.1800
     41 H41        -6.0691    0.9613   50.6268 H       1  ZINC000965273005    0.0800
     42 H42        -5.0542   -0.4423   51.0366 H       1  ZINC000965273005    0.1000
     43 H43        -5.5119    0.7244   52.3006 H       1  ZINC000965273005    0.0900
     44 H44        -0.8495    2.9434   48.4959 H       1  ZINC000965273005    0.1400
     45 H45         1.2928    1.9237   49.3941 H       1  ZINC000965273005    0.1000
     46 H46         0.3221    1.0025   50.6632 H       1  ZINC000965273005    0.1000
     47 H47        -0.9681   -0.1733   48.8229 H       1  ZINC000965273005    0.0900
     48 H48         0.0026    0.7479   47.5538 H       1  ZINC000965273005    0.1000
     49 H49        -3.1683    5.9396   52.2462 H       1  ZINC000965273005    0.3900
     50 H50        -3.1339    6.1479   54.7344 H       1  ZINC000965273005    0.0800
     51 H51        -2.2217    7.5951   55.2469 H       1  ZINC000965273005    0.0800
@<TRIPOS>BOND
     1     1     2    1
     2     1    30    1
     3     1    31    1
     4     1    32    1
     5     2     7   ar
     6     2     3   ar
     7     3     4   ar
     8     3    33    1
     9     4     5   ar
    10     4    34    1
    11     5     6   ar
    12     5    35    1
    13     6     7   ar
    14     6    36    1
    15     7     8    1
    16     8     9    2
    17     8    10   am
    18    10    29    1
    19    10    11    1
    20    11    12    1
    21    11    37    1
    22    11    38    1
    23    12    13    1
    24    12    14    1
    25    12    26    1
    26    14    15   am
    27    14    39    1
    28    15    16    2
    29    15    17    1
    30    17    22    1
    31    17    18    2
    32    18    19    1
    33    18    40    1
    34    19    20    1
    35    19    21    1
    36    20    41    1
    37    20    42    1
    38    20    43    1
    39    21    22    2
    40    22    23    1
    41    23    25    1
    42    23    24    1
    43    23    44    1
    44    24    25    1
    45    24    45    1
    46    24    46    1
    47    25    47    1
    48    25    48    1
    49    26    27    1
    50    26    28    1
    51    26    29    1
    52    28    49    1
    53    29    50    1
    54    29    51    1
@<TRIPOS>SUBSTRUCTURE
     1 ZINC000965273005        1 TEMP              0 ****  ****    0 ROOT


##########                                Name:    ZINC000011498449
##########                DOCK_Rotatable_Bonds:                   5
##########                         Heavy_Atoms:                  21
##########                    Molecular_Weight:             331.198
##########                DOCK_Rotatable_Bonds:                   5
##########                       Formal_Charge:         1.30385e-07
##########                     HBond_Acceptors:                   7
##########                        HBond_Donors:                   1
##########                         Heavy_Atoms:                  21
##########                          Grid_Score:          -26.470247
##########                     Grid_vdw_energy:          -26.004221
##########                      Grid_es_energy:           -0.466025
##########           Internal_energy_repulsive:            7.888307

@<TRIPOS>MOLECULE
ZINC000011498449
 37 38 1 0 0
SMALL
USER_CHARGES


@<TRIPOS>ATOM
      1 C1          3.3782    1.1231   48.6796 C.3     1  ZINC000011498449   -0.1500
      2 C2          2.7534    1.4058   50.0474 C.3     1  ZINC000011498449    0.0700
      3 H3          2.5191    0.4633   50.5424 H       1  ZINC000011498449    0.0600
      4 C4          1.4684    2.2214   49.8646 C.3     1  ZINC000011498449    0.0800
      5 N5          0.9907    2.6386   51.1925 N.am    1  ZINC000011498449   -0.6100
      6 C6         -0.2870    2.4301   51.5671 C.2     1  ZINC000011498449    0.5100
      7 O7         -0.6621    2.7826   52.6653 O.2     1  ZINC000011498449   -0.5300
      8 C8         -1.2496    1.7591   50.6215 C.3     1  ZINC000011498449    0.1000
      9 N9         -2.6129    1.8832   51.1431 N.am    1  ZINC000011498449   -0.7200
     10 C10        -3.6660    1.7771   50.3085 C.2     1  ZINC000011498449    0.5600
     11 O11        -3.4845    1.5770   49.1233 O.2     1  ZINC000011498449   -0.5100
     12 C12        -5.0406    1.9040   50.8341 C.ar    1  ZINC000011498449   -0.1300
     13 C13        -5.5422    3.1575   51.1902 C.ar    1  ZINC000011498449   -0.0600
     14 C14        -6.8261    3.2696   51.6797 C.ar    1  ZINC000011498449   -0.1100
     15 C15        -7.6192    2.1423   51.8190 C.ar    1  ZINC000011498449    0.0000
     16 Cl16       -9.2349    2.2931   52.4358 Cl      1  ZINC000011498449   -0.0400
     17 C17        -7.1288    0.8959   51.4681 C.ar    1  ZINC000011498449   -0.1100
     18 C18        -5.8467    0.7705   50.9716 C.ar    1  ZINC000011498449    0.0300
     19 Cl19       -5.2329   -0.7926   50.5318 Cl      1  ZINC000011498449   -0.0100
     20 C20         1.9494    3.2897   52.0993 C.3     1  ZINC000011498449    0.0700
     21 C21         3.2109    2.4221   52.1732 C.3     1  ZINC000011498449    0.0500
     22 O22         3.6745    2.1499   50.8485 O.3     1  ZINC000011498449   -0.3700
     23 H23         4.2928    0.5447   48.8105 H       1  ZINC000011498449    0.0700
     24 H24         2.6747    0.5574   48.0688 H       1  ZINC000011498449    0.0800
     25 H25         3.6122    2.0660   48.1852 H       1  ZINC000011498449    0.0700
     26 H26         1.6757    3.1015   49.2558 H       1  ZINC000011498449    0.0800
     27 H27         0.7103    1.6079   49.3777 H       1  ZINC000011498449    0.1000
     28 H28        -1.1900    2.2362   49.6432 H       1  ZINC000011498449    0.1000
     29 H29        -0.9910    0.7044   50.5277 H       1  ZINC000011498449    0.1000
     30 H30        -2.7578    2.0417   52.0890 H       1  ZINC000011498449    0.4100
     31 H31        -4.9254    4.0374   51.0827 H       1  ZINC000011498449    0.1500
     32 H32        -7.2146    4.2388   51.9557 H       1  ZINC000011498449    0.1500
     33 H33        -7.7519    0.0207   51.5790 H       1  ZINC000011498449    0.1500
     34 H34         2.2051    4.2774   51.7155 H       1  ZINC000011498449    0.0900
     35 H35         1.5098    3.3837   53.0923 H       1  ZINC000011498449    0.1000
     36 H36         3.9853    2.9518   52.7281 H       1  ZINC000011498449    0.1100
     37 H37         2.9784    1.4837   52.6767 H       1  ZINC000011498449    0.0600
@<TRIPOS>BOND
     1     1     2    1
     2     1    23    1
     3     1    24    1
     4     1    25    1
     5     2     3    1
     6     2    22    1
     7     2     4    1
     8     4     5    1
     9     4    26    1
    10     4    27    1
    11     5     6   am
    12     5    20    1
    13     6     7    2
    14     6     8    1
    15     8     9    1
    16     8    28    1
    17     8    29    1
    18     9    10   am
    19     9    30    1
    20    10    11    2
    21    10    12    1
    22    12    18   ar
    23    12    13   ar
    24    13    14   ar
    25    13    31    1
    26    14    15   ar
    27    14    32    1
    28    15    16    1
    29    15    17   ar
    30    17    18   ar
    31    17    33    1
    32    18    19    1
    33    20    21    1
    34    20    34    1
    35    20    35    1
    36    21    22    1
    37    21    36    1
    38    21    37    1
@<TRIPOS>SUBSTRUCTURE
     1 ZINC000011498449        1 TEMP              0 ****  ****    0 ROOT


##########                                Name:    ZINC001456096501
##########                DOCK_Rotatable_Bonds:                   7
##########                         Heavy_Atoms:                  24
##########                    Molecular_Weight:             333.431
##########                DOCK_Rotatable_Bonds:                   7
##########                       Formal_Charge:          -0.0200003
##########                     HBond_Acceptors:                   6
##########                        HBond_Donors:                   0
##########                         Heavy_Atoms:                  24
##########                          Grid_Score:          -26.468662
##########                     Grid_vdw_energy:          -27.515076
##########                      Grid_es_energy:            1.046413
##########           Internal_energy_repulsive:          144.283798

@<TRIPOS>MOLECULE
ZINC001456096501
 51 52 1 0 0
SMALL
USER_CHARGES


@<TRIPOS>ATOM
      1 C1         -4.1650    0.5152   50.0697 C.3     1  ZINC001456096501    0.0400
      2 O2         -2.8797    0.8171   50.6164 O.3     1  ZINC001456096501   -0.2900
      3 C3         -2.6071    2.1205   50.8628 C.ar    1  ZINC001456096501    0.3700
      4 N4         -3.5385    2.8989   51.3868 N.ar    1  ZINC001456096501   -0.5400
      5 C5         -3.3157    4.1735   51.6433 C.ar    1  ZINC001456096501    0.1600
      6 C6         -2.0901    4.7548   51.3734 C.ar    1  ZINC001456096501   -0.2200
      7 C7         -1.0786    3.9864   50.8244 C.ar    1  ZINC001456096501   -0.0200
      8 C8         -1.3361    2.6354   50.5658 C.ar    1  ZINC001456096501   -0.2000
      9 C9         -0.2933    1.7705   49.9816 C.2     1  ZINC001456096501    0.5900
     10 O10         0.3782    1.0570   50.7014 O.2     1  ZINC001456096501   -0.5100
     11 N11        -0.0853    1.7714   48.6500 N.am    1  ZINC001456096501   -0.6200
     12 C12         0.9156    0.9627   47.9386 C.3     1  ZINC001456096501    0.1000
     13 C13         0.8055    1.3124   46.4396 C.3     1  ZINC001456096501   -0.1200
     14 C14         0.1368    2.7123   46.4574 C.3     1  ZINC001456096501   -0.1200
     15 H15         0.8751    3.4959   46.6279 H       1  ZINC001456096501    0.0900
     16 C16        -0.6390    2.9660   45.1632 C.3     1  ZINC001456096501    0.1200
     17 N17         0.1075    3.9055   44.3227 N.am    1  ZINC001456096501   -0.6200
     18 C18         0.7127    3.4461   43.0701 C.3     1  ZINC001456096501    0.0600
     19 C19         0.2373    5.1923   44.7017 C.2     1  ZINC001456096501    0.5200
     20 O20        -0.2637    5.5726   45.7386 O.2     1  ZINC001456096501   -0.5300
     21 C21         1.0051    6.1586   43.8370 C.3     1  ZINC001456096501   -0.0800
     22 C22         0.7713    7.5861   44.3357 C.3     1  ZINC001456096501   -0.1300
     23 C23         2.4981    5.8316   43.9083 C.3     1  ZINC001456096501   -0.1500
     24 C24         0.5255    6.0394   42.3890 C.3     1  ZINC001456096501   -0.1700
     25 C25        -0.8279    2.5785   47.6648 C.3     1  ZINC001456096501    0.1200
     26 H26        -4.9407    0.8517   50.7576 H       1  ZINC001456096501    0.0600
     27 H27        -4.2819    1.0247   49.1132 H       1  ZINC001456096501    0.0600
     28 H28        -4.2531   -0.5610   49.9212 H       1  ZINC001456096501    0.1000
     29 H29        -4.1046    4.7741   52.0714 H       1  ZINC001456096501    0.1700
     30 H30        -1.9239    5.8000   51.5890 H       1  ZINC001456096501    0.1500
     31 H31        -0.1132    4.4177   50.6045 H       1  ZINC001456096501    0.1500
     32 H32         1.9141    1.2038   48.3032 H       1  ZINC001456096501    0.0700
     33 H33         0.7100   -0.0972   48.0881 H       1  ZINC001456096501    0.0700
     34 H34         1.7935    1.3628   45.9818 H       1  ZINC001456096501    0.0900
     35 H35         0.1752    0.5904   45.9205 H       1  ZINC001456096501    0.0800
     36 H36        -0.7707    2.0255   44.6284 H       1  ZINC001456096501    0.0800
     37 H37        -1.6151    3.3883   45.4017 H       1  ZINC001456096501    0.0900
     38 H38         0.0182    3.6158   42.2474 H       1  ZINC001456096501    0.0600
     39 H39         1.6342    3.9990   42.8876 H       1  ZINC001456096501    0.0900
     40 H40         0.9360    2.3818   43.1434 H       1  ZINC001456096501    0.0700
     41 H41         1.1129    7.6711   45.3673 H       1  ZINC001456096501    0.0600
     42 H42         1.3266    8.2850   43.7103 H       1  ZINC001456096501    0.0600
     43 H43        -0.2923    7.8190   44.2850 H       1  ZINC001456096501    0.0600
     44 H44         2.6503    4.7768   43.6797 H       1  ZINC001456096501    0.0700
     45 H45         3.0387    6.4419   43.1849 H       1  ZINC001456096501    0.0700
     46 H46         2.8688    6.0432   44.9112 H       1  ZINC001456096501    0.0600
     47 H47        -0.5381    6.2724   42.3381 H       1  ZINC001456096501    0.0600
     48 H48         1.0808    6.7384   41.7636 H       1  ZINC001456096501    0.0700
     49 H49         0.6921    5.0224   42.0337 H       1  ZINC001456096501    0.0800
     50 H50        -1.7442    2.0705   47.3639 H       1  ZINC001456096501    0.0800
     51 H51        -1.0560    3.5606   48.0789 H       1  ZINC001456096501    0.0700
@<TRIPOS>BOND
     1     1     2    1
     2     1    26    1
     3     1    27    1
     4     1    28    1
     5     2     3    1
     6     3     8   ar
     7     3     4   ar
     8     4     5   ar
     9     5     6   ar
    10     5    29    1
    11     6     7   ar
    12     6    30    1
    13     7     8   ar
    14     7    31    1
    15     8     9    1
    16     9    10    2
    17     9    11   am
    18    11    25    1
    19    11    12    1
    20    12    13    1
    21    12    32    1
    22    12    33    1
    23    13    14    1
    24    13    34    1
    25    13    35    1
    26    14    15    1
    27    14    16    1
    28    14    25    1
    29    16    17    1
    30    16    36    1
    31    16    37    1
    32    17    18    1
    33    17    19   am
    34    18    38    1
    35    18    39    1
    36    18    40    1
    37    19    20    2
    38    19    21    1
    39    21    22    1
    40    21    23    1
    41    21    24    1
    42    22    41    1
    43    22    42    1
    44    22    43    1
    45    23    44    1
    46    23    45    1
    47    23    46    1
    48    24    47    1
    49    24    48    1
    50    24    49    1
    51    25    50    1
    52    25    51    1
@<TRIPOS>SUBSTRUCTURE
     1 ZINC001456096501        1 TEMP              0 ****  ****    0 ROOT


##########                                Name:    ZINC000518937710
##########                DOCK_Rotatable_Bonds:                   6
##########                         Heavy_Atoms:                  25
##########                    Molecular_Weight:             397.421
##########                DOCK_Rotatable_Bonds:                   6
##########                       Formal_Charge:          -0.0199997
##########                     HBond_Acceptors:                  11
##########                        HBond_Donors:                   0
##########                         Heavy_Atoms:                  25
##########                          Grid_Score:          -26.426815
##########                     Grid_vdw_energy:          -27.867741
##########                      Grid_es_energy:            1.440926
##########           Internal_energy_repulsive:           22.506100

@<TRIPOS>MOLECULE
ZINC000518937710
 42 44 1 0 0
SMALL
USER_CHARGES


@<TRIPOS>ATOM
      1 C1         -0.6617    4.2943   48.5584 C.3     1  ZINC000518937710   -0.1900
      2 C2         -0.9217    2.8346   48.9357 C.3     1  ZINC000518937710    0.1700
      3 H3         -1.9636    2.5869   48.7328 H       1  ZINC000518937710    0.1100
      4 C4         -0.0107    1.9243   48.1097 C.3     1  ZINC000518937710   -0.6600
      5 S5         -0.5128    1.9861   46.3677 S.o2    1  ZINC000518937710    2.4000
      6 C6          0.1657    0.4308   45.7267 C.3     1  ZINC000518937710   -0.6600
      7 O7         -1.9309    1.9223   46.3027 O.2     1  ZINC000518937710   -0.9200
      8 O8          0.1625    3.0675   45.7399 O.2     1  ZINC000518937710   -0.9300
      9 N9         -0.6427    2.6414   50.3609 N.am    1  ZINC000518937710   -0.9600
     10 C10         0.6416    2.0794   50.7862 C.3     1  ZINC000518937710    0.0800
     11 C11         1.9029    2.8907   50.4829 C.3     1  ZINC000518937710   -0.1800
     12 C12         1.3839    2.7915   51.9188 C.3     1  ZINC000518937710   -0.1800
     13 S13        -1.7791    3.0580   51.4911 S.o2    1  ZINC000518937710    2.6900
     14 O14        -1.2792    2.6147   52.7452 O.2     1  ZINC000518937710   -0.9400
     15 O15        -2.1298    4.4097   51.2281 O.2     1  ZINC000518937710   -0.9400
     16 C16        -3.2190    2.0973   51.1616 C.ar    1  ZINC000518937710   -0.6400
     17 C17        -3.0979    0.8453   50.5881 C.ar    1  ZINC000518937710   -0.0300
     18 C18        -4.2254    0.0887   50.3282 C.ar    1  ZINC000518937710   -0.1300
     19 C19        -5.4787    0.5808   50.6412 C.ar    1  ZINC000518937710   -0.0300
     20 C20        -5.6077    1.8346   51.2161 C.ar    1  ZINC000518937710    0.0200
     21 C21        -4.4716    2.5947   51.4827 C.ar    1  ZINC000518937710    0.1900
     22 O22        -4.8595    3.7775   52.0429 O.3     1  ZINC000518937710   -0.2800
     23 C23        -6.2618    3.9040   51.7414 C.3     1  ZINC000518937710    0.5700
     24 F24        -6.9342    4.5418   52.7894 F       1  ZINC000518937710   -0.1200
     25 F25        -6.4460    4.6029   50.5435 F       1  ZINC000518937710   -0.1400
     26 O26        -6.7072    2.5394   51.6135 O.3     1  ZINC000518937710   -0.2900
     27 H27         0.3704    4.5526   48.7954 H       1  ZINC000518937710    0.1000
     28 H28        -0.8342    4.4299   47.4908 H       1  ZINC000518937710    0.0800
     29 H29        -1.3361    4.9405   49.1203 H       1  ZINC000518937710    0.0700
     30 H30         1.0214    2.2623   48.2025 H       1  ZINC000518937710    0.1600
     31 H31        -0.0921    0.9006   48.4751 H       1  ZINC000518937710    0.1400
     32 H32        -0.3354   -0.4096   46.2070 H       1  ZINC000518937710    0.1300
     33 H33         0.0062    0.3814   44.6495 H       1  ZINC000518937710    0.1300
     34 H34         1.2340    0.3859   45.9382 H       1  ZINC000518937710    0.1300
     35 H35         0.7182    0.9931   50.7392 H       1  ZINC000518937710    0.1500
     36 H36         2.8095    2.3382   50.2361 H       1  ZINC000518937710    0.1100
     37 H37         1.7770    3.8426   49.9669 H       1  ZINC000518937710    0.1000
     38 H38         0.9167    3.6781   52.3475 H       1  ZINC000518937710    0.1000
     39 H39         1.9492    2.1737   52.6167 H       1  ZINC000518937710    0.1000
     40 H40        -2.1203    0.4576   50.3422 H       1  ZINC000518937710    0.1600
     41 H41        -4.1268   -0.8886   49.8794 H       1  ZINC000518937710    0.1600
     42 H42        -6.3579   -0.0125   50.4371 H       1  ZINC000518937710    0.1500
@<TRIPOS>BOND
     1     1     2    1
     2     1    27    1
     3     1    28    1
     4     1    29    1
     5     2     3    1
     6     2     4    1
     7     2     9    1
     8     4     5    1
     9     4    30    1
    10     4    31    1
    11     5     6    1
    12     5     7    2
    13     5     8    2
    14     6    32    1
    15     6    33    1
    16     6    34    1
    17     9    10    1
    18     9    13   am
    19    10    12    1
    20    10    11    1
    21    10    35    1
    22    11    12    1
    23    11    36    1
    24    11    37    1
    25    12    38    1
    26    12    39    1
    27    13    14    2
    28    13    15    2
    29    13    16    1
    30    16    21   ar
    31    16    17   ar
    32    17    18   ar
    33    17    40    1
    34    18    19   ar
    35    18    41    1
    36    19    20   ar
    37    19    42    1
    38    20    26    1
    39    20    21   ar
    40    21    22    1
    41    22    23    1
    42    23    24    1
    43    23    25    1
    44    23    26    1
@<TRIPOS>SUBSTRUCTURE
     1 ZINC000518937710        1 TEMP              0 ****  ****    0 ROOT


##########                                Name:    ZINC000618094467
##########                DOCK_Rotatable_Bonds:                   5
##########                         Heavy_Atoms:                  27
##########                    Molecular_Weight:             370.492
##########                DOCK_Rotatable_Bonds:                   5
##########                       Formal_Charge:                0.03
##########                     HBond_Acceptors:                   5
##########                        HBond_Donors:                   0
##########                         Heavy_Atoms:                  27
##########                          Grid_Score:          -26.358627
##########                     Grid_vdw_energy:          -25.873352
##########                      Grid_es_energy:           -0.485276
##########           Internal_energy_repulsive:           79.076469

@<TRIPOS>MOLECULE
ZINC000618094467
 57 59 1 0 0
SMALL
USER_CHARGES


@<TRIPOS>ATOM
      1 C1         -7.0598    2.2024   50.3789 C.3     1  ZINC000618094467   -0.1500
      2 C2         -5.5660    2.4364   50.1449 C.3     1  ZINC000618094467   -0.1000
      3 C3         -4.7561    1.5131   51.0573 C.3     1  ZINC000618094467   -0.1100
      4 H4         -5.0118    1.7147   52.0975 H       1  ZINC000618094467    0.1000
      5 C5         -5.0809    0.0552   50.7256 C.3     1  ZINC000618094467   -0.1500
      6 C6         -3.2850    1.7609   50.8445 C.2     1  ZINC000618094467    0.5200
      7 O7         -2.6003    0.9190   50.3029 O.2     1  ZINC000618094467   -0.5000
      8 N8         -2.7300    2.9181   51.2559 N.am    1  ZINC000618094467   -0.6100
      9 C9         -3.5305    3.9563   51.9138 C.3     1  ZINC000618094467    0.1400
     10 C10        -2.7848    4.4901   53.1110 C.ar    1  ZINC000618094467   -0.1000
     11 C11        -3.4792    5.3014   53.9975 C.ar    1  ZINC000618094467   -0.1100
     12 C12        -2.8485    5.8283   55.1061 C.ar    1  ZINC000618094467   -0.1200
     13 C13        -1.5147    5.5466   55.3342 C.ar    1  ZINC000618094467   -0.1100
     14 C14        -0.8245    4.7370   54.4559 C.ar    1  ZINC000618094467   -0.1200
     15 C15        -1.4586    4.2002   53.3422 C.ar    1  ZINC000618094467   -0.0600
     16 C16        -0.6495    3.3031   52.4429 C.3     1  ZINC000618094467   -0.0800
     17 C17        -1.2949    3.1882   51.0686 C.3     1  ZINC000618094467    0.1200
     18 H18        -1.1687    4.1231   50.5226 H       1  ZINC000618094467    0.1000
     19 C19        -0.6588    2.0590   50.2995 C.2     1  ZINC000618094467    0.5500
     20 O20        -0.0875    1.1681   50.8918 O.2     1  ZINC000618094467   -0.5200
     21 N21        -0.7247    2.0393   48.9535 N.am    1  ZINC000618094467   -0.6100
     22 C22        -1.4090    3.1169   48.2275 C.3     1  ZINC000618094467    0.1200
     23 C23        -0.4185    3.7587   47.2477 C.3     1  ZINC000618094467   -0.1600
     24 H24        -0.9524    4.4244   46.5694 H       1  ZINC000618094467    0.1100
     25 C25         0.6343    4.5515   48.0248 C.3     1  ZINC000618094467   -0.1400
     26 C26         0.2532    2.6575   46.4569 C.2     1  ZINC000618094467    0.3700
     27 O27         0.2645    2.6817   45.2495 O.2     1  ZINC000618094467   -0.4400
     28 C28         0.9109    1.5257   47.2153 C.3     1  ZINC000618094467   -0.1600
     29 H29         1.7717    1.9045   47.7663 H       1  ZINC000618094467    0.1100
     30 C30         1.3635    0.4426   46.2341 C.3     1  ZINC000618094467   -0.1400
     31 C31        -0.1077    0.9430   48.1956 C.3     1  ZINC000618094467    0.1400
     32 H32        -7.3023    2.4163   51.4199 H       1  ZINC000618094467    0.0500
     33 H33        -7.6368    2.8602   49.7289 H       1  ZINC000618094467    0.0600
     34 H34        -7.3044    1.1641   50.1548 H       1  ZINC000618094467    0.0600
     35 H35        -5.3235    2.2224   49.1039 H       1  ZINC000618094467    0.0700
     36 H36        -5.3214    3.4746   50.3690 H       1  ZINC000618094467    0.0700
     37 H37        -4.9562   -0.1104   49.6555 H       1  ZINC000618094467    0.0700
     38 H38        -4.4069   -0.6014   51.2758 H       1  ZINC000618094467    0.0700
     39 H39        -6.1108   -0.1612   51.0093 H       1  ZINC000618094467    0.0700
     40 H40        -3.7184    4.7688   51.2119 H       1  ZINC000618094467    0.0900
     41 H41        -4.4803    3.5310   52.2381 H       1  ZINC000618094467    0.1100
     42 H42        -4.5211    5.5226   53.8181 H       1  ZINC000618094467    0.1300
     43 H43        -3.3946    6.4584   55.7925 H       1  ZINC000618094467    0.1300
     44 H44        -1.0140    5.9594   56.1975 H       1  ZINC000618094467    0.1200
     45 H45         0.2179    4.5187   54.6354 H       1  ZINC000618094467    0.1200
     46 H46         0.3544    3.7141   52.3359 H       1  ZINC000618094467    0.0900
     47 H47        -0.5843    2.3114   52.8905 H       1  ZINC000618094467    0.1000
     48 H48        -2.2545    2.7062   47.6757 H       1  ZINC000618094467    0.0700
     49 H49        -1.7615    3.8676   48.9348 H       1  ZINC000618094467    0.0900
     50 H50         1.2293    3.8684   48.6310 H       1  ZINC000618094467    0.0600
     51 H51         1.2843    5.0760   47.3244 H       1  ZINC000618094467    0.0600
     52 H52         0.1393    5.2750   48.6726 H       1  ZINC000618094467    0.0700
     53 H53         2.0772    0.8673   45.5280 H       1  ZINC000618094467    0.0700
     54 H54         1.8368   -0.3710   46.7839 H       1  ZINC000618094467    0.0700
     55 H55         0.4993    0.0599   45.6913 H       1  ZINC000618094467    0.0600
     56 H56         0.3943    0.2607   48.8816 H       1  ZINC000618094467    0.1100
     57 H57        -0.8804    0.4073   47.6443 H       1  ZINC000618094467    0.0700
@<TRIPOS>BOND
     1     1     2    1
     2     1    32    1
     3     1    33    1
     4     1    34    1
     5     2     3    1
     6     2    35    1
     7     2    36    1
     8     3     4    1
     9     3     5    1
    10     3     6    1
    11     5    37    1
    12     5    38    1
    13     5    39    1
    14     6     7    2
    15     6     8   am
    16     8    17    1
    17     8     9    1
    18     9    10    1
    19     9    40    1
    20     9    41    1
    21    10    15   ar
    22    10    11   ar
    23    11    12   ar
    24    11    42    1
    25    12    13   ar
    26    12    43    1
    27    13    14   ar
    28    13    44    1
    29    14    15   ar
    30    14    45    1
    31    15    16    1
    32    16    17    1
    33    16    46    1
    34    16    47    1
    35    17    18    1
    36    17    19    1
    37    19    20    2
    38    19    21   am
    39    21    31    1
    40    21    22    1
    41    22    23    1
    42    22    48    1
    43    22    49    1
    44    23    24    1
    45    23    25    1
    46    23    26    1
    47    25    50    1
    48    25    51    1
    49    25    52    1
    50    26    27    2
    51    26    28    1
    52    28    29    1
    53    28    30    1
    54    28    31    1
    55    30    53    1
    56    30    54    1
    57    30    55    1
    58    31    56    1
    59    31    57    1
@<TRIPOS>SUBSTRUCTURE
     1 ZINC000618094467        1 TEMP              0 ****  ****    0 ROOT


##########                                Name:    ZINC001248546333
##########                DOCK_Rotatable_Bonds:                   6
##########                         Heavy_Atoms:                  27
##########                    Molecular_Weight:             378.397
##########                DOCK_Rotatable_Bonds:                   6
##########                       Formal_Charge:         3.94881e-07
##########                     HBond_Acceptors:                   8
##########                        HBond_Donors:                   1
##########                         Heavy_Atoms:                  27
##########                          Grid_Score:          -26.270912
##########                     Grid_vdw_energy:          -25.215387
##########                      Grid_es_energy:           -1.055525
##########           Internal_energy_repulsive:           30.256729

@<TRIPOS>MOLECULE
ZINC001248546333
 48 50 1 0 0
SMALL
USER_CHARGES


@<TRIPOS>ATOM
      1 C1        -14.6105    6.1651   48.7797 C.3     1  ZINC001248546333   -0.1200
      2 C2        -13.3504    6.9816   48.9087 C.ar    1  ZINC001248546333   -0.0800
      3 C3        -13.4213    8.3629   48.9195 C.ar    1  ZINC001248546333   -0.1200
      4 C4        -12.2691    9.1198   49.0377 C.ar    1  ZINC001248546333   -0.1100
      5 C5        -11.0413    8.5002   49.1461 C.ar    1  ZINC001248546333   -0.1100
      6 C6        -10.9630    7.1069   49.1365 C.ar    1  ZINC001248546333   -0.0600
      7 C7         -9.6507    6.4364   49.2523 C.2     1  ZINC001248546333   -0.0600
      8 C8         -8.5859    7.1923   49.3686 C.2     1  ZINC001248546333   -0.1700
      9 C9         -7.1896    6.6452   49.4771 C.3     1  ZINC001248546333    0.1500
     10 N10        -7.2562    5.1933   49.6968 N.am    1  ZINC001248546333   -0.6300
     11 C11        -6.4643    4.5842   50.6014 C.2     1  ZINC001248546333    0.7200
     12 O12        -5.6745    5.2374   51.2554 O.2     1  ZINC001248546333   -0.5800
     13 N13        -6.5478    3.2510   50.7809 N.am    1  ZINC001248546333   -0.7500
     14 C14        -5.6870    2.5889   51.7642 C.3     1  ZINC001248546333    0.2000
     15 C15        -4.5076    1.9674   51.0615 C.2     1  ZINC001248546333    0.0700
     16 C16        -3.3317    2.5771   50.7847 C.2     1  ZINC001248546333   -0.2000
     17 C17        -2.5122    1.6534   50.1276 C.2     1  ZINC001248546333   -0.0200
     18 C18        -1.1107    1.9086   49.6361 C.3     1  ZINC001248546333    0.5600
     19 F19        -0.7904    0.9817   48.6384 F       1  ZINC001248546333   -0.1700
     20 F20        -1.0283    3.2036   49.1134 F       1  ZINC001248546333   -0.1700
     21 F21        -0.2121    1.7772   50.7003 F       1  ZINC001248546333   -0.1600
     22 N22        -3.1723    0.5296   50.0142 N.2     1  ZINC001248546333   -0.2200
     23 N23        -4.4327    0.7011   50.6010 N.pl3   1  ZINC001248546333   -0.3400
     24 C24        -5.4868   -0.3124   50.6907 C.3     1  ZINC001248546333    0.0900
     25 C25        -8.2230    4.4306   48.8881 C.3     1  ZINC001248546333    0.1300
     26 C26        -9.6274    4.9369   49.2349 C.3     1  ZINC001248546333   -0.1000
     27 C27       -12.1290    6.3495   49.0219 C.ar    1  ZINC001248546333   -0.1100
     28 H28       -15.0135    5.9595   49.7713 H       1  ZINC001248546333    0.0700
     29 H29       -15.3453    6.7206   48.1969 H       1  ZINC001248546333    0.0700
     30 H30       -14.3841    5.2246   48.2773 H       1  ZINC001248546333    0.0700
     31 H31       -14.3801    8.8528   48.8348 H       1  ZINC001248546333    0.1200
     32 H32       -12.3310   10.1980   49.0447 H       1  ZINC001248546333    0.1200
     33 H33       -10.1426    9.0921   49.2380 H       1  ZINC001248546333    0.1200
     34 H34        -8.7184    8.2640   49.3871 H       1  ZINC001248546333    0.1200
     35 H35        -6.6457    6.8495   48.5550 H       1  ZINC001248546333    0.0800
     36 H36        -6.6776    7.1174   50.3156 H       1  ZINC001248546333    0.0800
     37 H37        -7.1779    2.7299   50.2591 H       1  ZINC001248546333    0.4000
     38 H38        -5.3330    3.3221   52.4891 H       1  ZINC001248546333    0.1000
     39 H39        -6.2534    1.8131   52.2791 H       1  ZINC001248546333    0.0900
     40 H40        -3.0721    3.5968   51.0277 H       1  ZINC001248546333    0.1700
     41 H41        -5.3702   -0.8771   51.6157 H       1  ZINC001248546333    0.0900
     42 H42        -6.4615    0.1756   50.6833 H       1  ZINC001248546333    0.1000
     43 H43        -5.4131   -0.9895   49.8398 H       1  ZINC001248546333    0.1000
     44 H44        -8.0220    4.5875   47.8284 H       1  ZINC001248546333    0.0700
     45 H45        -8.1461    3.3696   49.1254 H       1  ZINC001248546333    0.1000
     46 H46        -9.9169    4.5546   50.2138 H       1  ZINC001248546333    0.0800
     47 H47       -10.3347    4.5780   48.4873 H       1  ZINC001248546333    0.0900
     48 H48       -12.0751    5.2708   49.0137 H       1  ZINC001248546333    0.1200
@<TRIPOS>BOND
     1     1     2    1
     2     1    28    1
     3     1    29    1
     4     1    30    1
     5     2    27   ar
     6     2     3   ar
     7     3     4   ar
     8     3    31    1
     9     4     5   ar
    10     4    32    1
    11     5     6   ar
    12     5    33    1
    13     6     7    1
    14     6    27   ar
    15     7    26    1
    16     7     8    2
    17     8     9    1
    18     8    34    1
    19     9    10    1
    20     9    35    1
    21     9    36    1
    22    10    11   am
    23    10    25    1
    24    11    12    2
    25    11    13   am
    26    13    14    1
    27    13    37    1
    28    14    15    1
    29    14    38    1
    30    14    39    1
    31    15    23    1
    32    15    16    2
    33    16    17    1
    34    16    40    1
    35    17    18    1
    36    17    22    2
    37    18    19    1
    38    18    20    1
    39    18    21    1
    40    22    23    1
    41    23    24    1
    42    24    41    1
    43    24    42    1
    44    24    43    1
    45    25    26    1
    46    25    44    1
    47    25    45    1
    48    26    46    1
    49    26    47    1
    50    27    48    1
@<TRIPOS>SUBSTRUCTURE
     1 ZINC001248546333        1 TEMP              0 ****  ****    0 ROOT


##########                                Name:    ZINC000944933040
##########                DOCK_Rotatable_Bonds:                   4
##########                         Heavy_Atoms:                  26
##########                    Molecular_Weight:             354.449
##########                DOCK_Rotatable_Bonds:                   4
##########                       Formal_Charge:           0.0100002
##########                     HBond_Acceptors:                   5
##########                        HBond_Donors:                   0
##########                         Heavy_Atoms:                  26
##########                          Grid_Score:          -26.262129
##########                     Grid_vdw_energy:          -23.682655
##########                      Grid_es_energy:           -2.579473
##########           Internal_energy_repulsive:           10.097089

@<TRIPOS>MOLECULE
ZINC000944933040
 52 57 1 0 0
SMALL
USER_CHARGES


@<TRIPOS>ATOM
      1 O1          3.0880    1.2816   49.3152 O.2     1  ZINC000944933040   -0.5200
      2 C2          1.9272    1.6132   49.1687 C.2     1  ZINC000944933040    0.6400
      3 C3          1.3092    1.5072   47.8812 C.1     1  ZINC000944933040   -0.2200
      4 C4          0.8028    1.4203   46.8256 C.1     1  ZINC000944933040   -0.0400
      5 C5          0.1677    1.3114   45.5022 C.3     1  ZINC000944933040   -0.0700
      6 C6         -1.3566    1.4272   45.4385 C.3     1  ZINC000944933040   -0.1600
      7 C7         -0.4804    2.5710   44.9238 C.3     1  ZINC000944933040   -0.1600
      8 N8          1.2205    2.0753   50.2192 N.am    1  ZINC000944933040   -0.6000
      9 C9         -0.1857    2.4671   50.0566 C.3     1  ZINC000944933040    0.1100
     10 C10        -0.3534    3.9134   50.5374 C.3     1  ZINC000944933040   -0.1200
     11 C11         0.2219    4.0420   51.9458 C.3     1  ZINC000944933040   -0.0900
     12 C12        -0.0872    5.3878   52.6159 C.3     1  ZINC000944933040    0.1200
     13 N13        -0.3574    4.6006   53.8356 N.am    1  ZINC000944933040   -0.6400
     14 C14        -0.3389    4.8696   55.1561 C.2     1  ZINC000944933040    0.5500
     15 O15        -0.0484    5.9811   55.5445 O.2     1  ZINC000944933040   -0.5300
     16 C16        -0.6790    3.7891   56.1501 C.3     1  ZINC000944933040   -0.1300
     17 H17        -1.3773    3.0733   55.7163 H       1  ZINC000944933040    0.1100
     18 C18        -1.2581    4.4020   57.4507 C.3     1  ZINC000944933040   -0.1300
     19 C19        -0.2253    3.9593   58.5302 C.3     1  ZINC000944933040    0.0900
     20 H20        -0.2101    4.5628   59.4378 H       1  ZINC000944933040    0.1300
     21 O21         1.0162    3.9517   57.7518 O.3     1  ZINC000944933040   -0.3600
     22 C22         0.6110    3.0701   56.6470 C.3     1  ZINC000944933040    0.1200
     23 H23         1.3734    2.8779   55.8921 H       1  ZINC000944933040    0.1400
     24 C24         0.1111    1.8167   57.4261 C.3     1  ZINC000944933040   -0.2000
     25 H25        -0.3885    1.0269   56.8651 H       1  ZINC000944933040    0.1200
     26 C26         0.7957    1.5009   58.7575 C.3     1  ZINC000944933040   -0.1300
     27 C27        -0.4802    2.4371   58.7444 C.3     1  ZINC000944933040   -0.2000
     28 H28        -1.4105    2.1033   59.2040 H       1  ZINC000944933040    0.1300
     29 C29        -0.6571    3.4008   53.0287 C.3     1  ZINC000944933040    0.1100
     30 C30         1.6915    3.6380   52.0341 C.3     1  ZINC000944933040   -0.1100
     31 C31         1.8440    2.1882   51.5444 C.3     1  ZINC000944933040    0.1100
     32 H32         0.6504    0.6277   44.8040 H       1  ZINC000944933040    0.1400
     33 H33        -1.8770    0.8195   44.6982 H       1  ZINC000944933040    0.1100
     34 H34        -1.8891    1.5841   46.3765 H       1  ZINC000944933040    0.1000
     35 H35        -0.4363    3.4803   45.5232 H       1  ZINC000944933040    0.1000
     36 H36        -0.4243    2.7157   43.8449 H       1  ZINC000944933040    0.1100
     37 H37        -0.4654    2.3967   49.0055 H       1  ZINC000944933040    0.0900
     38 H38        -0.8196    1.8087   50.6505 H       1  ZINC000944933040    0.0800
     39 H39         0.1785    4.5854   49.8638 H       1  ZINC000944933040    0.0800
     40 H40        -1.4120    4.1725   50.5511 H       1  ZINC000944933040    0.0900
     41 H41         0.7776    6.0459   52.6999 H       1  ZINC000944933040    0.0800
     42 H42        -0.9671    5.8884   52.2117 H       1  ZINC000944933040    0.0900
     43 H43        -1.3006    5.4889   57.3798 H       1  ZINC000944933040    0.0800
     44 H44        -2.2435    3.9892   57.6667 H       1  ZINC000944933040    0.0900
     45 H45         0.6626    0.4985   59.1649 H       1  ZINC000944933040    0.1000
     46 H46         1.7688    1.9561   58.9420 H       1  ZINC000944933040    0.1000
     47 H47        -1.7063    3.3109   52.7472 H       1  ZINC000944933040    0.0900
     48 H48        -0.2453    2.4796   53.4408 H       1  ZINC000944933040    0.0800
     49 H49         2.2898    4.3010   51.4090 H       1  ZINC000944933040    0.0800
     50 H50         2.0274    3.7092   53.0685 H       1  ZINC000944933040    0.0800
     51 H51         1.3523    1.5125   52.2443 H       1  ZINC000944933040    0.0700
     52 H52         2.9020    1.9363   51.4720 H       1  ZINC000944933040    0.1000
@<TRIPOS>BOND
     1     1     2    2
     2     2     3    1
     3     2     8   am
     4     3     4    3
     5     4     5    1
     6     5     7    1
     7     5     6    1
     8     5    32    1
     9     6     7    1
    10     6    33    1
    11     6    34    1
    12     7    35    1
    13     7    36    1
    14     8    31    1
    15     8     9    1
    16     9    10    1
    17     9    37    1
    18     9    38    1
    19    10    11    1
    20    10    39    1
    21    10    40    1
    22    11    29    1
    23    11    12    1
    24    11    30    1
    25    12    13    1
    26    12    41    1
    27    12    42    1
    28    13    14   am
    29    13    29    1
    30    14    15    2
    31    14    16    1
    32    16    17    1
    33    16    22    1
    34    16    18    1
    35    18    19    1
    36    18    43    1
    37    18    44    1
    38    19    20    1
    39    19    27    1
    40    19    21    1
    41    21    22    1
    42    22    23    1
    43    22    24    1
    44    24    25    1
    45    24    27    1
    46    24    26    1
    47    26    27    1
    48    26    45    1
    49    26    46    1
    50    27    28    1
    51    29    47    1
    52    29    48    1
    53    30    31    1
    54    30    49    1
    55    30    50    1
    56    31    51    1
    57    31    52    1
@<TRIPOS>SUBSTRUCTURE
     1 ZINC000944933040        1 TEMP              0 ****  ****    0 ROOT


##########                                Name:    ZINC001067560454
##########                DOCK_Rotatable_Bonds:                   4
##########                         Heavy_Atoms:                  25
##########                    Molecular_Weight:             342.444
##########                DOCK_Rotatable_Bonds:                   4
##########                       Formal_Charge:          0.00999971
##########                     HBond_Acceptors:                   7
##########                        HBond_Donors:                   1
##########                         Heavy_Atoms:                  25
##########                          Grid_Score:          -25.937483
##########                     Grid_vdw_energy:          -25.801445
##########                      Grid_es_energy:           -0.136037
##########           Internal_energy_repulsive:           14.922994

@<TRIPOS>MOLECULE
ZINC001067560454
 51 54 1 0 0
SMALL
USER_CHARGES


@<TRIPOS>ATOM
      1 C1         -5.2262    0.4999   50.3289 C.3     1  ZINC001067560454   -0.1500
      2 C2         -4.3715    1.4799   51.1352 C.3     1  ZINC001067560454    0.1000
      3 H3         -4.3909    1.1976   52.1879 H       1  ZINC001067560454    0.0600
      4 C4         -2.9300    1.4401   50.6230 C.3     1  ZINC001067560454   -0.1200
      5 C5         -2.0829    2.4366   51.4192 C.3     1  ZINC001067560454    0.1400
      6 H6         -2.0694    2.1456   52.4697 H       1  ZINC001067560454    0.0900
      7 N7         -0.7147    2.4442   50.8957 N.am    1  ZINC001067560454   -0.7200
      8 C8          0.2946    2.9153   51.6545 C.2     1  ZINC001067560454    0.5400
      9 O9          0.0700    3.3343   52.7702 O.2     1  ZINC001067560454   -0.5300
     10 C10         1.7024    2.9214   51.1166 C.3     1  ZINC001067560454   -0.1100
     11 C11         2.5906    3.9704   51.7886 C.3     1  ZINC001067560454   -0.1300
     12 C12         2.3411    1.5242   51.0466 C.3     1  ZINC001067560454   -0.1200
     13 C13         1.7450    1.4087   49.6338 C.3     1  ZINC001067560454   -0.1400
     14 C14         1.7749    2.9453   49.5807 C.3     1  ZINC001067560454   -0.1200
     15 C15        -2.6919    3.8349   51.2835 C.3     1  ZINC001067560454   -0.1200
     16 C16        -4.1403    3.8053   51.7766 C.3     1  ZINC001067560454    0.0600
     17 N17        -4.9090    2.8379   50.9829 N.3     1  ZINC001067560454   -0.4900
     18 C18        -6.2518    2.8797   51.3148 C.ar    1  ZINC001067560454    0.4400
     19 C19        -7.1878    3.4730   50.4509 C.ar    1  ZINC001067560454   -0.0800
     20 N20        -7.1166    4.0842   49.2441 N.2     1  ZINC001067560454   -0.4700
     21 C21        -8.3074    4.4612   48.8786 C.2     1  ZINC001067560454    0.2700
     22 N22        -9.2187    4.1141   49.8312 N.pl3   1  ZINC001067560454   -0.4800
     23 C23       -10.6610    4.3662   49.7838 C.3     1  ZINC001067560454    0.0800
     24 C24        -8.5375    3.4847   50.8422 C.ar    1  ZINC001067560454    0.2800
     25 N25        -8.8775    2.9387   52.0050 N.ar    1  ZINC001067560454   -0.5200
     26 C26        -7.9658    2.3934   52.7824 C.ar    1  ZINC001067560454    0.3300
     27 N27        -6.6870    2.3547   52.4557 N.ar    1  ZINC001067560454   -0.5100
     28 H28        -5.2070    0.7820   49.2762 H       1  ZINC001067560454    0.0700
     29 H29        -4.8276   -0.5082   50.4423 H       1  ZINC001067560454    0.0700
     30 H30        -6.2529    0.5278   50.6939 H       1  ZINC001067560454    0.0500
     31 H31        -2.5261    0.4357   50.7505 H       1  ZINC001067560454    0.0800
     32 H32        -2.9115    1.7091   49.5669 H       1  ZINC001067560454    0.0800
     33 H33        -0.5352    2.1102   50.0029 H       1  ZINC001067560454    0.4000
     34 H34         2.5086    3.8762   52.8713 H       1  ZINC001067560454    0.0600
     35 H35         3.6268    3.8157   51.4877 H       1  ZINC001067560454    0.0700
     36 H36         2.2691    4.9668   51.4852 H       1  ZINC001067560454    0.0600
     37 H37         3.4309    1.5412   51.0607 H       1  ZINC001067560454    0.0900
     38 H38         1.9186    0.8149   51.7582 H       1  ZINC001067560454    0.0700
     39 H39         2.4132    0.9339   48.9154 H       1  ZINC001067560454    0.0700
     40 H40         0.7385    0.9907   49.6174 H       1  ZINC001067560454    0.0800
     41 H41         0.8952    3.3831   49.1088 H       1  ZINC001067560454    0.0800
     42 H42         2.7099    3.3508   49.1940 H       1  ZINC001067560454    0.0900
     43 H43        -2.1179    4.5415   51.8829 H       1  ZINC001067560454    0.0800
     44 H44        -2.6697    4.1416   50.2377 H       1  ZINC001067560454    0.0800
     45 H45        -4.1607    3.5119   52.8262 H       1  ZINC001067560454    0.0700
     46 H46        -4.5814    4.7961   51.6679 H       1  ZINC001067560454    0.0800
     47 H47        -8.5394    4.9738   47.9568 H       1  ZINC001067560454    0.2300
     48 H48       -11.1616    3.5245   49.3053 H       1  ZINC001067560454    0.0800
     49 H49       -11.0423    4.4871   50.7977 H       1  ZINC001067560454    0.0900
     50 H50       -10.8525    5.2749   49.2129 H       1  ZINC001067560454    0.0900
     51 H51        -8.2758    1.9583   53.7210 H       1  ZINC001067560454    0.2100
@<TRIPOS>BOND
     1     1     2    1
     2     1    28    1
     3     1    29    1
     4     1    30    1
     5     2     3    1
     6     2    17    1
     7     2     4    1
     8     4     5    1
     9     4    31    1
    10     4    32    1
    11     5     6    1
    12     5     7    1
    13     5    15    1
    14     7     8   am
    15     7    33    1
    16     8     9    2
    17     8    10    1
    18    10    14    1
    19    10    11    1
    20    10    12    1
    21    11    34    1
    22    11    35    1
    23    11    36    1
    24    12    13    1
    25    12    37    1
    26    12    38    1
    27    13    14    1
    28    13    39    1
    29    13    40    1
    30    14    41    1
    31    14    42    1
    32    15    16    1
    33    15    43    1
    34    15    44    1
    35    16    17    1
    36    16    45    1
    37    16    46    1
    38    17    18    1
    39    18    27   ar
    40    18    19   ar
    41    19    24   ar
    42    19    20    1
    43    20    21    2
    44    21    22    1
    45    21    47    1
    46    22    23    1
    47    22    24    1
    48    23    48    1
    49    23    49    1
    50    23    50    1
    51    24    25   ar
    52    25    26   ar
    53    26    27   ar
    54    26    51    1
@<TRIPOS>SUBSTRUCTURE
     1 ZINC001067560454        1 TEMP              0 ****  ****    0 ROOT


##########                                Name:    ZINC000345028113
##########                DOCK_Rotatable_Bonds:                   5
##########                         Heavy_Atoms:                  21
##########                    Molecular_Weight:             331.838
##########                DOCK_Rotatable_Bonds:                   5
##########                       Formal_Charge:         4.47035e-07
##########                     HBond_Acceptors:                   6
##########                        HBond_Donors:                   0
##########                         Heavy_Atoms:                  21
##########                          Grid_Score:          -25.923994
##########                     Grid_vdw_energy:          -26.499014
##########                      Grid_es_energy:            0.575019
##########           Internal_energy_repulsive:           16.453333

@<TRIPOS>MOLECULE
ZINC000345028113
 40 41 1 0 0
SMALL
USER_CHARGES


@<TRIPOS>ATOM
      1 C1         -0.1328    1.0087   45.2656 C.3     1  ZINC000345028113   -0.1700
      2 C2          0.3548    2.2283   46.0504 C.3     1  ZINC000345028113    0.1400
      3 H3         -0.1179    3.1274   45.6550 H       1  ZINC000345028113    0.1100
      4 C4          1.8763    2.3488   45.9134 C.3     1  ZINC000345028113   -0.0700
      5 H5          2.2212    3.2385   46.4402 H       1  ZINC000345028113    0.0900
      6 C6          2.2515    2.4513   44.4336 C.3     1  ZINC000345028113   -0.1400
      7 S7          2.6484    0.8728   46.6402 S.3     1  ZINC000345028113   -0.2400
      8 C8          1.9445    0.8526   48.3156 C.3     1  ZINC000345028113   -0.1100
      9 C9          0.4160    0.8835   48.2094 C.3     1  ZINC000345028113    0.1000
     10 N10         0.0025    2.0725   47.4625 N.am    1  ZINC000345028113   -0.6100
     11 C11        -0.7103    3.0342   48.0817 C.2     1  ZINC000345028113    0.5200
     12 O12        -1.0550    4.0227   47.4694 O.2     1  ZINC000345028113   -0.5300
     13 C13        -1.0791    2.8813   49.5349 C.3     1  ZINC000345028113   -0.1400
     14 C14        -2.2553    1.9113   49.6632 C.3     1  ZINC000345028113    0.0700
     15 O15        -2.7639    1.9533   50.9980 O.3     1  ZINC000345028113   -0.3000
     16 C16        -4.0567    1.5723   51.1783 C.ar    1  ZINC000345028113    0.1300
     17 C17        -4.5036    0.3668   50.6596 C.ar    1  ZINC000345028113   -0.1700
     18 C18        -5.8177   -0.0195   50.8438 C.ar    1  ZINC000345028113   -0.1100
     19 C19        -6.6881    0.7962   51.5460 C.ar    1  ZINC000345028113    0.0800
     20 F20        -7.9722    0.4167   51.7256 F       1  ZINC000345028113   -0.1300
     21 C21        -6.2439    2.0008   52.0651 C.ar    1  ZINC000345028113   -0.1100
     22 C22        -4.9288    2.3875   51.8870 C.ar    1  ZINC000345028113   -0.0400
     23 Cl23       -4.3717    3.8974   52.5376 Cl      1  ZINC000345028113   -0.0400
     24 H24        -1.2151    0.9230   45.3629 H       1  ZINC000345028113    0.0600
     25 H25         0.1294    1.1248   44.2141 H       1  ZINC000345028113    0.0800
     26 H26         0.3398    0.1096   45.6609 H       1  ZINC000345028113    0.0800
     27 H27         1.7777    3.3314   43.9988 H       1  ZINC000345028113    0.0800
     28 H28         3.3340    2.5369   44.3384 H       1  ZINC000345028113    0.0700
     29 H29         1.9100    1.5586   43.9096 H       1  ZINC000345028113    0.0700
     30 H30         2.2564   -0.0553   48.8321 H       1  ZINC000345028113    0.1200
     31 H31         2.2901    1.7265   48.8677 H       1  ZINC000345028113    0.0900
     32 H32         0.0698   -0.0101   47.6903 H       1  ZINC000345028113    0.0900
     33 H33        -0.0171    0.9137   49.2092 H       1  ZINC000345028113    0.1000
     34 H34        -0.2244    2.4910   50.0875 H       1  ZINC000345028113    0.1100
     35 H35        -1.3624    3.8519   49.9420 H       1  ZINC000345028113    0.1100
     36 H36        -3.0417    2.1996   48.9656 H       1  ZINC000345028113    0.0800
     37 H37        -1.9191    0.9001   49.4341 H       1  ZINC000345028113    0.0800
     38 H38        -3.8253   -0.2700   50.1113 H       1  ZINC000345028113    0.1500
     39 H39        -6.1659   -0.9584   50.4394 H       1  ZINC000345028113    0.1500
     40 H40        -6.9241    2.6364   52.6125 H       1  ZINC000345028113    0.1500
@<TRIPOS>BOND
     1     1     2    1
     2     1    24    1
     3     1    25    1
     4     1    26    1
     5     2     3    1
     6     2    10    1
     7     2     4    1
     8     4     5    1
     9     4     6    1
    10     4     7    1
    11     6    27    1
    12     6    28    1
    13     6    29    1
    14     7     8    1
    15     8     9    1
    16     8    30    1
    17     8    31    1
    18     9    10    1
    19     9    32    1
    20     9    33    1
    21    10    11   am
    22    11    12    2
    23    11    13    1
    24    13    14    1
    25    13    34    1
    26    13    35    1
    27    14    15    1
    28    14    36    1
    29    14    37    1
    30    15    16    1
    31    16    22   ar
    32    16    17   ar
    33    17    18   ar
    34    17    38    1
    35    18    19   ar
    36    18    39    1
    37    19    20    1
    38    19    21   ar
    39    21    22   ar
    40    21    40    1
    41    22    23    1
@<TRIPOS>SUBSTRUCTURE
     1 ZINC000345028113        1 TEMP              0 ****  ****    0 ROOT


##########                                Name:    ZINC000793092912
##########                DOCK_Rotatable_Bonds:                   4
##########                         Heavy_Atoms:                  26
##########                    Molecular_Weight:               407.2
##########                DOCK_Rotatable_Bonds:                   4
##########                       Formal_Charge:         2.90573e-07
##########                     HBond_Acceptors:                  10
##########                        HBond_Donors:                   1
##########                         Heavy_Atoms:                  26
##########                          Grid_Score:          -25.917978
##########                     Grid_vdw_energy:          -25.757742
##########                      Grid_es_energy:           -0.160236
##########           Internal_energy_repulsive:           10.415368

@<TRIPOS>MOLECULE
ZINC000793092912
 40 43 1 0 0
SMALL
USER_CHARGES


@<TRIPOS>ATOM
      1 C1          2.8612    0.5523   44.2269 C.3     1  ZINC000793092912   -0.1300
      2 C2          2.6405    1.3021   45.5422 C.3     1  ZINC000793092912   -0.0800
      3 C3          1.4034    0.8877   46.3241 C.3     1  ZINC000793092912   -0.1100
      4 C4          1.7138    0.5704   47.7748 C.3     1  ZINC000793092912    0.1100
      5 N5          2.6537    1.5177   48.3500 N.am    1  ZINC000793092912   -0.5700
      6 C6          2.3022    2.1847   49.4671 C.2     1  ZINC000793092912    0.5100
      7 O7          3.0707    2.9808   49.9656 O.2     1  ZINC000793092912   -0.5100
      8 C8          0.9672    1.9442   50.0915 C.2     1  ZINC000793092912    0.5100
      9 O9          0.8599    1.1590   51.0110 O.2     1  ZINC000793092912   -0.4900
     10 N10        -0.1185    2.5987   49.6341 N.am    1  ZINC000793092912   -0.6400
     11 C11        -1.3688    2.3734   50.2189 C.ar    1  ZINC000793092912    0.1600
     12 C12        -1.7458    3.0873   51.3488 C.ar    1  ZINC000793092912   -0.1200
     13 C13        -2.9809    2.8657   51.9277 C.ar    1  ZINC000793092912   -0.0600
     14 C14        -3.8461    1.9306   51.3832 C.ar    1  ZINC000793092912    0.0200
     15 O15        -5.0972    1.5308   51.7577 O.3     1  ZINC000793092912   -0.2800
     16 C16        -5.6464    0.8598   50.6083 C.3     1  ZINC000793092912    0.5700
     17 F17        -6.4717   -0.1981   51.0044 F       1  ZINC000793092912   -0.1100
     18 F18        -6.3550    1.7602   49.8055 F       1  ZINC000793092912   -0.1500
     19 O19        -4.4863    0.3640   49.9146 O.3     1  ZINC000793092912   -0.2800
     20 C20        -3.4707    1.2125   50.2495 C.ar    1  ZINC000793092912    0.0500
     21 C21        -2.2360    1.4394   49.6663 C.ar    1  ZINC000793092912   -0.0900
     22 C22         3.9611    1.7715   47.7635 C.3     1  ZINC000793092912    0.1100
     23 C23         3.8763    1.8380   46.2458 C.3     1  ZINC000793092912   -0.1200
     24 H24         4.8168    1.6437   45.7303 H       1  ZINC000793092912    0.1400
     25 C25         2.9431    2.8101   45.5399 C.3     1  ZINC000793092912    0.0000
     26 Cl26        3.5238    3.5583   44.0057 Cl      1  ZINC000793092912   -0.0800
     27 Cl27        1.8947    3.8556   46.5690 Cl      1  ZINC000793092912   -0.0900
     28 H28         3.4964   -0.3154   44.4054 H       1  ZINC000793092912    0.0800
     29 H29         1.9005    0.2238   43.8303 H       1  ZINC000793092912    0.0700
     30 H30         3.3439    1.2142   43.5080 H       1  ZINC000793092912    0.0700
     31 H31         0.6755    1.6982   46.2881 H       1  ZINC000793092912    0.0900
     32 H32         0.9689    0.0049   45.8550 H       1  ZINC000793092912    0.1000
     33 H33         0.7879    0.5966   48.3493 H       1  ZINC000793092912    0.1100
     34 H34         2.1386   -0.4316   47.8354 H       1  ZINC000793092912    0.0800
     35 H35        -0.0327    3.2261   48.8992 H       1  ZINC000793092912    0.4300
     36 H36        -1.0730    3.8163   51.7758 H       1  ZINC000793092912    0.1500
     37 H37        -3.2720    3.4221   52.8063 H       1  ZINC000793092912    0.1500
     38 H38        -1.9456    0.8880   48.7844 H       1  ZINC000793092912    0.1600
     39 H39         4.3367    2.7274   48.1285 H       1  ZINC000793092912    0.1400
     40 H40         4.6476    0.9805   48.0654 H       1  ZINC000793092912    0.1000
@<TRIPOS>BOND
     1     1     2    1
     2     1    28    1
     3     1    29    1
     4     1    30    1
     5     2    23    1
     6     2    25    1
     7     2     3    1
     8     3     4    1
     9     3    31    1
    10     3    32    1
    11     4     5    1
    12     4    33    1
    13     4    34    1
    14     5     6   am
    15     5    22    1
    16     6     7    2
    17     6     8    1
    18     8     9    2
    19     8    10   am
    20    10    11    1
    21    10    35    1
    22    11    21   ar
    23    11    12   ar
    24    12    13   ar
    25    12    36    1
    26    13    14   ar
    27    13    37    1
    28    14    20   ar
    29    14    15    1
    30    15    16    1
    31    16    17    1
    32    16    18    1
    33    16    19    1
    34    19    20    1
    35    20    21   ar
    36    21    38    1
    37    22    23    1
    38    22    39    1
    39    22    40    1
    40    23    24    1
    41    23    25    1
    42    25    26    1
    43    25    27    1
@<TRIPOS>SUBSTRUCTURE
     1 ZINC000793092912        1 TEMP              0 ****  ****    0 ROOT


##########                                Name:    ZINC000444542200
##########                DOCK_Rotatable_Bonds:                   8
##########                         Heavy_Atoms:                  28
##########                    Molecular_Weight:             404.337
##########                DOCK_Rotatable_Bonds:                   8
##########                       Formal_Charge:           0.0200001
##########                     HBond_Acceptors:                  10
##########                        HBond_Donors:                   1
##########                         Heavy_Atoms:                  28
##########                          Grid_Score:          -25.810942
##########                     Grid_vdw_energy:          -25.653246
##########                      Grid_es_energy:           -0.157695
##########           Internal_energy_repulsive:           19.862602

@<TRIPOS>MOLECULE
ZINC000444542200
 45 46 1 0 0
SMALL
USER_CHARGES


@<TRIPOS>ATOM
      1 C1         -5.2850    0.0574   50.7603 C.3     1  ZINC000444542200    0.0300
      2 O2         -5.8914    1.0802   49.9677 O.3     1  ZINC000444542200   -0.3100
      3 C3         -6.6897    1.9699   50.6141 C.ar    1  ZINC000444542200    0.1800
      4 C4         -6.9163    1.8361   51.9755 C.ar    1  ZINC000444542200   -0.1700
      5 C5         -7.7314    2.7452   52.6357 C.ar    1  ZINC000444542200    0.2300
      6 N6         -7.9601    2.6110   54.0097 N.am    1  ZINC000444542200   -0.5800
      7 C7         -9.1826    1.9613   54.4889 C.3     1  ZINC000444542200    0.0700
      8 C8         -7.0555    3.0793   54.8922 C.2     1  ZINC000444542200    0.7100
      9 O9         -7.2542    2.9628   56.0861 O.2     1  ZINC000444542200   -0.5500
     10 N10        -5.9308    3.6769   54.4514 N.am    1  ZINC000444542200   -0.7300
     11 C11        -4.9467    4.1844   55.4107 C.3     1  ZINC000444542200    0.1700
     12 H12        -5.0421    3.6412   56.3509 H       1  ZINC000444542200    0.1500
     13 C13        -3.5587    3.9900   54.8568 C.ar    1  ZINC000444542200   -0.1300
     14 C14        -3.3320    4.1188   53.4995 C.ar    1  ZINC000444542200   -0.0800
     15 C15        -2.0592    3.9406   52.9898 C.ar    1  ZINC000444542200   -0.0900
     16 C16        -1.0108    3.6335   53.8365 C.ar    1  ZINC000444542200   -0.1100
     17 C17        -1.2346    3.5038   55.1962 C.ar    1  ZINC000444542200    0.0800
     18 F18        -0.2103    3.2036   56.0244 F       1  ZINC000444542200   -0.1200
     19 C19        -2.5099    3.6881   55.7081 C.ar    1  ZINC000444542200    0.1000
     20 F20        -2.7307    3.5620   57.0349 F       1  ZINC000444542200   -0.1100
     21 C21        -5.1942    5.6743   55.6551 C.3     1  ZINC000444542200    0.4400
     22 F22        -4.0612    6.2447   56.2452 F       1  ZINC000444542200   -0.1600
     23 F23        -5.4551    6.3097   54.4363 F       1  ZINC000444542200   -0.1700
     24 F24        -6.2926    5.8310   56.5072 F       1  ZINC000444542200   -0.1800
     25 C25        -8.3191    3.7877   51.9325 C.ar    1  ZINC000444542200   -0.1900
     26 C26        -8.0918    3.9203   50.5712 C.ar    1  ZINC000444542200    0.1800
     27 O27        -8.6671    4.9409   49.8827 O.3     1  ZINC000444542200   -0.3100
     28 C28        -8.4283    4.9894   48.4747 C.3     1  ZINC000444542200    0.0300
     29 C29        -7.2730    3.0148   49.9132 C.ar    1  ZINC000444542200   -0.2900
     30 H30        -4.6557    0.5147   51.5239 H       1  ZINC000444542200    0.0600
     31 H31        -6.0613   -0.5396   51.2390 H       1  ZINC000444542200    0.0600
     32 H32        -4.6755   -0.5830   50.1228 H       1  ZINC000444542200    0.1000
     33 H33        -6.4589    1.0245   52.5218 H       1  ZINC000444542200    0.1300
     34 H34        -9.0063    0.8912   54.5986 H       1  ZINC000444542200    0.0700
     35 H35        -9.4645    2.3839   55.4532 H       1  ZINC000444542200    0.0700
     36 H36        -9.9864    2.1255   53.7712 H       1  ZINC000444542200    0.0900
     37 H37        -5.7728    3.7710   53.4990 H       1  ZINC000444542200    0.4100
     38 H38        -4.1499    4.3584   52.8363 H       1  ZINC000444542200    0.1400
     39 H39        -1.8841    4.0413   51.9289 H       1  ZINC000444542200    0.1500
     40 H40        -0.0171    3.4942   53.4370 H       1  ZINC000444542200    0.1500
     41 H41        -8.9538    4.4951   52.4456 H       1  ZINC000444542200    0.1400
     42 H42        -8.8015    4.0762   48.0111 H       1  ZINC000444542200    0.0600
     43 H43        -8.9435    5.8502   48.0482 H       1  ZINC000444542200    0.1000
     44 H44        -7.3576    5.0789   48.2906 H       1  ZINC000444542200    0.0600
     45 H45        -7.0962    3.1185   48.8528 H       1  ZINC000444542200    0.1400
@<TRIPOS>BOND
     1     1     2    1
     2     1    30    1
     3     1    31    1
     4     1    32    1
     5     2     3    1
     6     3    29   ar
     7     3     4   ar
     8     4     5   ar
     9     4    33    1
    10     5     6    1
    11     5    25   ar
    12     6     7    1
    13     6     8   am
    14     7    34    1
    15     7    35    1
    16     7    36    1
    17     8     9    2
    18     8    10   am
    19    10    11    1
    20    10    37    1
    21    11    12    1
    22    11    13    1
    23    11    21    1
    24    13    19   ar
    25    13    14   ar
    26    14    15   ar
    27    14    38    1
    28    15    16   ar
    29    15    39    1
    30    16    17   ar
    31    16    40    1
    32    17    18    1
    33    17    19   ar
    34    19    20    1
    35    21    22    1
    36    21    23    1
    37    21    24    1
    38    25    26   ar
    39    25    41    1
    40    26    27    1
    41    26    29   ar
    42    27    28    1
    43    28    42    1
    44    28    43    1
    45    28    44    1
    46    29    45    1
@<TRIPOS>SUBSTRUCTURE
     1 ZINC000444542200        1 TEMP              0 ****  ****    0 ROOT


##########                                Name:    ZINC000950547210
##########                DOCK_Rotatable_Bonds:                   5
##########                         Heavy_Atoms:                  25
##########                    Molecular_Weight:              346.47
##########                DOCK_Rotatable_Bonds:                   5
##########                       Formal_Charge:         5.58794e-07
##########                     HBond_Acceptors:                   5
##########                        HBond_Donors:                   1
##########                         Heavy_Atoms:                  25
##########                          Grid_Score:          -25.758432
##########                     Grid_vdw_energy:          -25.286104
##########                      Grid_es_energy:           -0.472328
##########           Internal_energy_repulsive:           17.134523

@<TRIPOS>MOLECULE
ZINC000950547210
 55 58 1 0 0
SMALL
USER_CHARGES


@<TRIPOS>ATOM
      1 O1         -2.3109    3.5871   50.8714 O.2     1  ZINC000950547210   -0.5200
      2 C2         -2.5556    2.4914   50.4126 C.2     1  ZINC000950547210    0.5200
      3 N3         -3.8263    2.0436   50.3782 N.am    1  ZINC000950547210   -0.7300
      4 C4         -4.9114    2.8780   50.9003 C.3     1  ZINC000950547210    0.1300
      5 H5         -4.6562    3.9298   50.7705 H       1  ZINC000950547210    0.0900
      6 C6         -6.2041    2.5686   50.1417 C.3     1  ZINC000950547210   -0.1300
      7 C7         -7.3306    3.4630   50.6640 C.3     1  ZINC000950547210   -0.1300
      8 C8         -7.5608    3.1721   52.1503 C.3     1  ZINC000950547210    0.1000
      9 N9         -6.2866    3.3270   52.8653 N.am    1  ZINC000950547210   -0.6100
     10 C10        -6.1953    4.1381   53.9379 C.2     1  ZINC000950547210    0.5600
     11 O11        -7.1733    4.7502   54.3224 O.2     1  ZINC000950547210   -0.5200
     12 C12        -4.9127    4.2829   54.6434 C.2     1  ZINC000950547210   -0.1400
     13 C13        -4.5803    3.3849   55.5533 C.2     1  ZINC000950547210   -0.1500
     14 C14        -3.2955    3.4568   56.3294 C.3     1  ZINC000950547210    0.0900
     15 O15        -2.3906    4.3646   55.6978 O.3     1  ZINC000950547210   -0.3700
     16 C16        -2.9815    5.6374   55.4088 C.3     1  ZINC000950547210    0.0600
     17 C17        -4.0217    5.4450   54.2997 C.3     1  ZINC000950547210   -0.1100
     18 C18        -5.1136    2.5811   52.3894 C.3     1  ZINC000950547210    0.1000
     19 C19        -1.4395    1.6331   49.8755 C.3     1  ZINC000950547210   -0.1000
     20 H20        -1.7028    0.5814   49.9890 H       1  ZINC000950547210    0.1000
     21 C21        -0.1537    1.9236   50.6522 C.3     1  ZINC000950547210   -0.1100
     22 C22         0.9207    2.4313   49.6885 C.3     1  ZINC000950547210   -0.0900
     23 C23         1.1967    1.3663   48.6254 C.3     1  ZINC000950547210   -0.1100
     24 C24        -0.0889    1.0759   47.8486 C.3     1  ZINC000950547210   -0.1100
     25 C25        -1.2222    1.9473   48.3939 C.3     1  ZINC000950547210   -0.0600
     26 C26        -0.8525    3.4233   48.2344 C.3     1  ZINC000950547210   -0.1300
     27 C27         0.4333    3.7138   49.0113 C.3     1  ZINC000950547210   -0.1200
     28 H28        -4.0224    1.1688   50.0076 H       1  ZINC000950547210    0.4000
     29 H29        -6.0548    2.7562   49.0783 H       1  ZINC000950547210    0.0800
     30 H30        -6.4716    1.5227   50.2917 H       1  ZINC000950547210    0.0700
     31 H31        -7.0530    4.5094   50.5369 H       1  ZINC000950547210    0.0700
     32 H32        -8.2452    3.2586   50.1074 H       1  ZINC000950547210    0.0900
     33 H33        -8.2923    3.8737   52.5511 H       1  ZINC000950547210    0.0900
     34 H34        -7.9258    2.1520   52.2708 H       1  ZINC000950547210    0.0700
     35 H35        -5.2587    2.5673   55.7476 H       1  ZINC000950547210    0.1200
     36 H36        -3.5039    3.8004   57.3425 H       1  ZINC000950547210    0.0700
     37 H37        -2.8430    2.4661   56.3717 H       1  ZINC000950547210    0.1100
     38 H38        -3.4638    6.0291   56.3044 H       1  ZINC000950547210    0.0600
     39 H39        -2.2112    6.3306   55.0708 H       1  ZINC000950547210    0.1000
     40 H40        -3.5135    5.2534   53.3546 H       1  ZINC000950547210    0.0900
     41 H41        -4.6273    6.3468   54.2096 H       1  ZINC000950547210    0.0900
     42 H42        -5.2786    1.5127   52.5291 H       1  ZINC000950547210    0.0700
     43 H43        -4.2311    2.8926   52.9482 H       1  ZINC000950547210    0.1000
     44 H44        -0.3503    2.6823   51.4097 H       1  ZINC000950547210    0.0700
     45 H45         0.1936    1.0100   51.1348 H       1  ZINC000950547210    0.0700
     46 H46         1.8367    2.6383   50.2419 H       1  ZINC000950547210    0.0700
     47 H47         1.9622    1.7281   47.9388 H       1  ZINC000950547210    0.0600
     48 H48         1.5440    0.4527   49.1079 H       1  ZINC000950547210    0.0600
     49 H49         0.0658    1.2997   46.7931 H       1  ZINC000950547210    0.0700
     50 H50        -0.3523    0.0243   47.9622 H       1  ZINC000950547210    0.0600
     51 H51        -2.1381    1.7403   47.8405 H       1  ZINC000950547210    0.0800
     52 H52        -0.6977    3.6472   47.1790 H       1  ZINC000950547210    0.0600
     53 H53        -1.6597    4.0442   48.6229 H       1  ZINC000950547210    0.0900
     54 H54         0.2366    4.4726   49.7686 H       1  ZINC000950547210    0.0600
     55 H55         1.1987    4.0755   48.3247 H       1  ZINC000950547210    0.0600
@<TRIPOS>BOND
     1     1     2    2
     2     2     3   am
     3     2    19    1
     4     3     4    1
     5     3    28    1
     6     4     5    1
     7     4    18    1
     8     4     6    1
     9     6     7    1
    10     6    29    1
    11     6    30    1
    12     7     8    1
    13     7    31    1
    14     7    32    1
    15     8     9    1
    16     8    33    1
    17     8    34    1
    18     9    10   am
    19     9    18    1
    20    10    11    2
    21    10    12    1
    22    12    17    1
    23    12    13    2
    24    13    14    1
    25    13    35    1
    26    14    15    1
    27    14    36    1
    28    14    37    1
    29    15    16    1
    30    16    17    1
    31    16    38    1
    32    16    39    1
    33    17    40    1
    34    17    41    1
    35    18    42    1
    36    18    43    1
    37    19    20    1
    38    19    25    1
    39    19    21    1
    40    21    22    1
    41    21    44    1
    42    21    45    1
    43    22    27    1
    44    22    23    1
    45    22    46    1
    46    23    24    1
    47    23    47    1
    48    23    48    1
    49    24    25    1
    50    24    49    1
    51    24    50    1
    52    25    26    1
    53    25    51    1
    54    26    27    1
    55    26    52    1
    56    26    53    1
    57    27    54    1
    58    27    55    1
@<TRIPOS>SUBSTRUCTURE
     1 ZINC000950547210        1 TEMP              0 ****  ****    0 ROOT


##########                                Name:    ZINC000469391664
##########                DOCK_Rotatable_Bonds:                   6
##########                         Heavy_Atoms:                  29
##########                    Molecular_Weight:             408.524
##########                DOCK_Rotatable_Bonds:                   6
##########                       Formal_Charge:         -0.00999999
##########                     HBond_Acceptors:                   7
##########                        HBond_Donors:                   0
##########                         Heavy_Atoms:                  29
##########                          Grid_Score:          -25.753471
##########                     Grid_vdw_energy:          -25.322729
##########                      Grid_es_energy:           -0.430743
##########           Internal_energy_repulsive:           45.281647

@<TRIPOS>MOLECULE
ZINC000469391664
 53 56 1 0 0
SMALL
USER_CHARGES


@<TRIPOS>ATOM
      1 C1         -7.1605    3.6501   49.4638 C.3     1  ZINC000469391664   -0.1500
      2 C2         -6.9641    3.9385   50.9535 C.3     1  ZINC000469391664   -0.1000
      3 H3         -7.7448    3.4380   51.5263 H       1  ZINC000469391664    0.0800
      4 C4         -7.0423    5.4476   51.1954 C.3     1  ZINC000469391664   -0.1300
      5 C5         -6.8797    5.7299   52.6922 C.3     1  ZINC000469391664    0.1100
      6 N6         -5.6328    5.1079   53.1582 N.am    1  ZINC000469391664   -0.6100
      7 C7         -4.7062    5.8345   53.8137 C.2     1  ZINC000469391664    0.5600
      8 O8         -4.8979    7.0166   54.0246 O.2     1  ZINC000469391664   -0.5000
      9 C9         -3.4593    5.1958   54.2753 C.ar    1  ZINC000469391664   -0.1100
     10 C10        -3.5100    4.0867   55.1225 C.ar    1  ZINC000469391664   -0.0900
     11 C11        -2.3413    3.4940   55.5499 C.ar    1  ZINC000469391664   -0.1000
     12 C12        -1.1144    3.9932   55.1440 C.ar    1  ZINC000469391664   -0.0900
     13 C13        -1.0481    5.0892   54.3072 C.ar    1  ZINC000469391664   -0.1000
     14 C14        -2.2150    5.6955   53.8613 C.ar    1  ZINC000469391664    0.1500
     15 N15        -2.1507    6.8005   53.0177 N.am    1  ZINC000469391664   -0.5800
     16 C16        -2.4615    8.1357   53.5343 C.3     1  ZINC000469391664    0.0900
     17 C17        -1.8025    6.6422   51.7253 C.2     1  ZINC000469391664    0.6100
     18 O18        -1.7461    7.6085   50.9875 O.2     1  ZINC000469391664   -0.5200
     19 C19        -1.4916    5.3067   51.2086 C.2     1  ZINC000469391664   -0.2600
     20 C20        -0.4513    5.0010   50.3763 C.2     1  ZINC000469391664   -0.0500
     21 C21        -0.3929    3.6678   50.0467 C.2     1  ZINC000469391664   -0.1500
     22 C22        -1.3507    2.9063   50.5886 C.2     1  ZINC000469391664   -0.2600
     23 S23        -2.3924    3.8396   51.5657 S.3     1  ZINC000469391664    0.2300
     24 C24        -5.4155    3.6787   52.8962 C.3     1  ZINC000469391664    0.1000
     25 C25        -5.5943    3.4196   51.3970 C.3     1  ZINC000469391664    0.1300
     26 H26        -4.8118    3.9375   50.8424 H       1  ZINC000469391664    0.1000
     27 N27        -5.5083    1.9806   51.1357 N.pl3   1  ZINC000469391664   -0.4500
     28 C28        -4.5664    1.3493   50.3689 C.2     1  ZINC000469391664   -0.0500
     29 C29        -4.8576    0.0348   50.3980 C.2     1  ZINC000469391664   -0.0300
     30 N30        -5.9475   -0.1320   51.1617 N.2     1  ZINC000469391664   -0.4900
     31 C31        -6.3398    1.0287   51.6112 C.2     1  ZINC000469391664    0.1800
     32 H32        -7.1054    2.5752   49.2915 H       1  ZINC000469391664    0.0600
     33 H33        -8.1363    4.0192   49.1480 H       1  ZINC000469391664    0.0600
     34 H34        -6.3799    4.1505   48.8909 H       1  ZINC000469391664    0.0600
     35 H35        -6.2462    5.9463   50.6426 H       1  ZINC000469391664    0.0700
     36 H36        -8.0092    5.8206   50.8578 H       1  ZINC000469391664    0.0900
     37 H37        -6.8355    6.8063   52.8584 H       1  ZINC000469391664    0.1000
     38 H38        -7.7243    5.3084   53.2375 H       1  ZINC000469391664    0.0800
     39 H39        -4.4638    3.6940   55.4424 H       1  ZINC000469391664    0.1400
     40 H40        -2.3822    2.6364   56.2049 H       1  ZINC000469391664    0.1400
     41 H41        -0.2041    3.5222   55.4845 H       1  ZINC000469391664    0.1400
     42 H42        -0.0879    5.4726   53.9955 H       1  ZINC000469391664    0.1400
     43 H43        -1.5387    8.6349   53.8297 H       1  ZINC000469391664    0.0600
     44 H44        -2.9579    8.7189   52.7587 H       1  ZINC000469391664    0.0900
     45 H45        -3.1193    8.0466   54.3988 H       1  ZINC000469391664    0.0700
     46 H46         0.2542    5.7338   50.0136 H       1  ZINC000469391664    0.1500
     47 H47         0.3701    3.2643   49.3973 H       1  ZINC000469391664    0.1400
     48 H48        -1.4486    1.8422   50.4318 H       1  ZINC000469391664    0.1600
     49 H49        -4.4052    3.4015   53.1969 H       1  ZINC000469391664    0.1000
     50 H50        -6.1407    3.0898   53.4580 H       1  ZINC000469391664    0.0800
     51 H51        -3.7475    1.8158   49.8415 H       1  ZINC000469391664    0.1700
     52 H52        -4.3096   -0.7479   49.8945 H       1  ZINC000469391664    0.1700
     53 H53        -7.1922    1.2003   52.2517 H       1  ZINC000469391664    0.2000
@<TRIPOS>BOND
     1     1     2    1
     2     1    32    1
     3     1    33    1
     4     1    34    1
     5     2     3    1
     6     2    25    1
     7     2     4    1
     8     4     5    1
     9     4    35    1
    10     4    36    1
    11     5     6    1
    12     5    37    1
    13     5    38    1
    14     6     7   am
    15     6    24    1
    16     7     8    2
    17     7     9    1
    18     9    14   ar
    19     9    10   ar
    20    10    11   ar
    21    10    39    1
    22    11    12   ar
    23    11    40    1
    24    12    13   ar
    25    12    41    1
    26    13    14   ar
    27    13    42    1
    28    14    15    1
    29    15    16    1
    30    15    17   am
    31    16    43    1
    32    16    44    1
    33    16    45    1
    34    17    18    2
    35    17    19    1
    36    19    23    1
    37    19    20    2
    38    20    21    1
    39    20    46    1
    40    21    22    2
    41    21    47    1
    42    22    23    1
    43    22    48    1
    44    24    25    1
    45    24    49    1
    46    24    50    1
    47    25    26    1
    48    25    27    1
    49    27    31    1
    50    27    28    1
    51    28    29    2
    52    28    51    1
    53    29    30    1
    54    29    52    1
    55    30    31    2
    56    31    53    1
@<TRIPOS>SUBSTRUCTURE
     1 ZINC000469391664        1 TEMP              0 ****  ****    0 ROOT


##########                                Name:    ZINC001211202056
##########                DOCK_Rotatable_Bonds:                   4
##########                         Heavy_Atoms:                  23
##########                    Molecular_Weight:             386.181
##########                DOCK_Rotatable_Bonds:                   4
##########                       Formal_Charge:           0.0199999
##########                     HBond_Acceptors:                  11
##########                        HBond_Donors:                   3
##########                         Heavy_Atoms:                  23
##########                          Grid_Score:          -25.648918
##########                     Grid_vdw_energy:          -23.866840
##########                      Grid_es_energy:           -1.782077
##########           Internal_energy_repulsive:            8.089119

@<TRIPOS>MOLECULE
ZINC001211202056
 31 32 1 0 0
SMALL
USER_CHARGES


@<TRIPOS>ATOM
      1 N1         -3.1026    5.6721   56.7576 N.pl3   1  ZINC001211202056   -0.8500
      2 C2         -2.4047    5.2287   55.6309 C.ar    1  ZINC001211202056    0.2900
      3 C3         -2.0650    6.1244   54.6259 C.ar    1  ZINC001211202056   -0.2000
      4 C4         -1.3751    5.6829   53.5133 C.ar    1  ZINC001211202056    0.0400
      5 C5         -1.0231    4.3509   53.3992 C.ar    1  ZINC001211202056   -0.7300
      6 S6         -0.1433    3.7929   51.9782 S.o2    1  ZINC001211202056    2.6900
      7 O7          0.8542    4.7700   51.7145 O.2     1  ZINC001211202056   -0.9400
      8 O8          0.1525    2.4213   52.2025 O.2     1  ZINC001211202056   -0.9300
      9 N9         -1.1950    3.8415   50.7001 N.am    1  ZINC001211202056   -1.0500
     10 C10        -2.3687    3.0831   50.7315 C.ar    1  ZINC001211202056    0.1600
     11 C11        -3.3614    3.3564   51.6681 C.ar    1  ZINC001211202056   -0.1200
     12 C12        -4.5076    2.5772   51.6595 C.ar    1  ZINC001211202056   -0.0800
     13 C13        -4.6275    1.5624   50.7295 C.ar    1  ZINC001211202056    0.0400
     14 C14        -5.8712    0.7114   50.7150 C.3     1  ZINC001211202056    0.5300
     15 F15        -5.5196   -0.6246   50.4948 F       1  ZINC001211202056   -0.1700
     16 F16        -6.5278    0.8242   51.9452 F       1  ZINC001211202056   -0.1600
     17 F17        -6.7209    1.1449   49.6916 F       1  ZINC001211202056   -0.1700
     18 N18        -3.6691    1.3279   49.8539 N.ar    1  ZINC001211202056   -0.4100
     19 C19        -2.5647    2.0478   49.8238 C.ar    1  ZINC001211202056    0.1600
     20 Cl20       -1.3384    1.6921   48.6475 Cl      1  ZINC001211202056    0.0000
     21 C21        -1.3596    3.4553   54.3981 C.ar    1  ZINC001211202056    0.0400
     22 C22        -2.0441    3.8910   55.5164 C.ar    1  ZINC001211202056   -0.1400
     23 Cl23       -2.4663    2.7666   56.7700 Cl      1  ZINC001211202056   -0.0500
     24 H24        -3.3360    5.0462   57.4610 H       1  ZINC001211202056    0.4100
     25 H25        -3.3502    6.6065   56.8381 H       1  ZINC001211202056    0.4100
     26 H26        -2.3400    7.1650   54.7136 H       1  ZINC001211202056    0.1400
     27 H27        -1.1107    6.3794   52.7313 H       1  ZINC001211202056    0.1500
     28 H28        -0.9965    4.3963   49.9295 H       1  ZINC001211202056    0.4400
     29 H29        -3.2413    4.1560   52.3841 H       1  ZINC001211202056    0.2000
     30 H30        -5.2981    2.7610   52.3720 H       1  ZINC001211202056    0.1700
     31 H31        -1.0831    2.4153   54.3059 H       1  ZINC001211202056    0.1500
@<TRIPOS>BOND
     1     1     2    1
     2     1    24    1
     3     1    25    1
     4     2    22   ar
     5     2     3   ar
     6     3     4   ar
     7     3    26    1
     8     4     5   ar
     9     4    27    1
    10     5     6    1
    11     5    21   ar
    12     6     7    2
    13     6     8    2
    14     6     9   am
    15     9    10    1
    16     9    28    1
    17    10    19   ar
    18    10    11   ar
    19    11    12   ar
    20    11    29    1
    21    12    13   ar
    22    12    30    1
    23    13    14    1
    24    13    18   ar
    25    14    15    1
    26    14    16    1
    27    14    17    1
    28    18    19   ar
    29    19    20    1
    30    21    22   ar
    31    21    31    1
    32    22    23    1
@<TRIPOS>SUBSTRUCTURE
     1 ZINC001211202056        1 TEMP              0 ****  ****    0 ROOT


##########                                Name:      oleObject5.pdb
##########                DOCK_Rotatable_Bonds:                   5
##########                         Heavy_Atoms:                  24
##########                    Molecular_Weight:             323.438
##########                DOCK_Rotatable_Bonds:                   5
##########                       Formal_Charge:         0.000200074
##########                     HBond_Acceptors:                   4
##########                        HBond_Donors:                   2
##########                         Heavy_Atoms:                  24
##########                          Grid_Score:          -25.643452
##########                     Grid_vdw_energy:          -25.952044
##########                      Grid_es_energy:            0.308591
##########           Internal_energy_repulsive:            9.151598

@<TRIPOS>MOLECULE
oleObject5.pdb
 49 51 1 0 0
SMALL
NO_CHARGES


@<TRIPOS>ATOM
      1 C          -9.4812    1.5831   52.4996 C.3     1  UNL        -0.0394
      2 C          -8.4437    2.0856   53.4989 C.ar    1  UNL        -0.0456
      3 C          -8.6999    1.8882   54.8701 C.ar    1  UNL        -0.0590
      4 C          -7.8000    2.3440   55.8437 C.ar    1  UNL        -0.0620
      5 C          -6.6320    3.0102   55.4536 C.ar    1  UNL        -0.0619
      6 C          -6.3668    3.2151   54.0921 C.ar    1  UNL        -0.0565
      7 C          -7.2566    2.7534   53.0988 C.ar    1  UNL        -0.0188
      8 C          -6.9194    3.0377   51.6288 C.3     1  UNL         0.0906
      9 N          -7.2347    4.4431   51.3172 N.am    1  UNL        -0.3025
     10 C          -7.9202    4.8278   50.1791 C.2     1  UNL         0.2156
     11 O          -8.4536    4.0179   49.4404 O.2     1  UNL        -0.2774
     12 C          -8.1354    6.3488   50.0633 C.3     1  UNL         0.0382
     13 C          -9.4632    6.6819   49.3316 C.3     1  UNL        -0.0292
     14 C          -9.3595    6.4242   47.8125 C.3     1  UNL        -0.0041
     15 N          -8.2433    7.1880   47.2290 N.4     1  UNL        -0.3167
     16 C          -6.9376    6.8704   47.8340 C.3     1  UNL        -0.0041
     17 C          -6.9519    7.0776   49.3695 C.3     1  UNL        -0.0292
     18 C          -5.4662    2.6618   51.2922 C.ar    1  UNL         0.0681
     19 N          -4.5484    3.6556   51.3748 N.ar    1  UNL        -0.2587
     20 C          -3.2577    3.3881   51.1014 C.ar    1  UNL         0.0272
     21 C          -2.8115    2.1104   50.7335 C.ar    1  UNL        -0.0435
     22 C          -3.7485    1.0709   50.6490 C.ar    1  UNL        -0.0559
     23 C          -5.1010    1.3402   50.9321 C.ar    1  UNL        -0.0272
     24 C          -6.1179    0.2087   50.8490 C.3     1  UNL        -0.0379
     25 H         -10.2510    0.9741   52.9895 H       1  UNL         0.0280
     26 H          -9.0301    0.9570   51.7220 H       1  UNL         0.0280
     27 H          -9.9960    2.4183   52.0125 H       1  UNL         0.0280
     28 H          -9.6074    1.3816   55.1869 H       1  UNL         0.0626
     29 H          -8.0113    2.1861   56.8974 H       1  UNL         0.0623
     30 H          -5.9348    3.3716   56.2041 H       1  UNL         0.0623
     31 H          -5.4621    3.7453   53.8099 H       1  UNL         0.0627
     32 H          -7.5541    2.4240   50.9827 H       1  UNL         0.0624
     33 H          -7.2935    5.0649   52.1130 H       1  UNL         0.1504
     34 H          -8.2077    6.7289   51.0907 H       1  UNL         0.0402
     35 H          -9.7053    7.7401   49.4940 H       1  UNL         0.0288
     36 H         -10.2970    6.1053   49.7510 H       1  UNL         0.0288
     37 H         -10.3004    6.7145   47.3282 H       1  UNL         0.0428
     38 H          -9.2087    5.3514   47.6344 H       1  UNL         0.0428
     39 H          -8.4288    8.1833   47.3482 H       1  UNL         0.1222
     40 H          -6.1609    7.5054   47.3895 H       1  UNL         0.0428
     41 H          -6.6775    5.8289   47.6070 H       1  UNL         0.0428
     42 H          -7.0328    8.1531   49.5735 H       1  UNL         0.0288
     43 H          -5.9978    6.7489   49.8012 H       1  UNL         0.0288
     44 H          -2.5620    4.2226   51.1799 H       1  UNL         0.0840
     45 H          -1.7620    1.9304   50.5205 H       1  UNL         0.0639
     46 H          -3.4271    0.0716   50.3691 H       1  UNL         0.0627
     47 H          -5.6463   -0.7378   50.5567 H       1  UNL         0.0280
     48 H          -6.8941    0.4282   50.1057 H       1  UNL         0.0280
     49 H          -6.6043    0.0437   51.8180 H       1  UNL         0.0280
@<TRIPOS>BOND
     1     1     2    1
     2     1    25    1
     3     1    26    1
     4     1    27    1
     5     2     3   ar
     6     2     7   ar
     7     3     4   ar
     8     3    28    1
     9     4     5   ar
    10     4    29    1
    11     5     6   ar
    12     5    30    1
    13     6     7   ar
    14     6    31    1
    15     7     8    1
    16     8     9    1
    17     8    18    1
    18     8    32    1
    19     9    10   am
    20     9    33    1
    21    10    11    2
    22    10    12    1
    23    12    13    1
    24    12    17    1
    25    12    34    1
    26    13    14    1
    27    13    35    1
    28    13    36    1
    29    14    15    1
    30    14    37    1
    31    14    38    1
    32    15    16    1
    33    15    39    1
    34    16    17    1
    35    16    40    1
    36    16    41    1
    37    17    42    1
    38    17    43    1
    39    18    19   ar
    40    18    23   ar
    41    19    20   ar
    42    20    21   ar
    43    20    44    1
    44    21    22   ar
    45    21    45    1
    46    22    23   ar
    47    22    46    1
    48    23    24    1
    49    24    47    1
    50    24    48    1
    51    24    49    1
@<TRIPOS>SUBSTRUCTURE
     1 UNL         1 TEMP              0 ****  ****    0 ROOT


##########                                Name:    ZINC000560467340
##########                DOCK_Rotatable_Bonds:                   7
##########                         Heavy_Atoms:                  24
##########                    Molecular_Weight:             369.481
##########                DOCK_Rotatable_Bonds:                   7
##########                       Formal_Charge:          -0.0199997
##########                     HBond_Acceptors:                   7
##########                        HBond_Donors:                   2
##########                         Heavy_Atoms:                  24
##########                          Grid_Score:          -25.606031
##########                     Grid_vdw_energy:          -25.918137
##########                      Grid_es_energy:            0.312105
##########           Internal_energy_repulsive:           21.518723

@<TRIPOS>MOLECULE
ZINC000560467340
 44 46 1 0 0
SMALL
USER_CHARGES


@<TRIPOS>ATOM
      1 O1         -1.5591    2.6838   52.3846 O.2     1  ZINC000560467340   -0.9600
      2 S2         -2.2159    2.9939   51.1633 S.o2    1  ZINC000560467340    2.7100
      3 O3         -2.6999    4.2924   50.8489 O.2     1  ZINC000560467340   -0.9500
      4 N4         -1.1676    2.5791   49.9502 N.am    1  ZINC000560467340   -1.0900
      5 C5          0.0894    3.3133   49.7854 C.3     1  ZINC000560467340    0.1400
      6 C6          1.2676    2.3533   49.9617 C.3     1  ZINC000560467340   -0.0500
      7 C7          1.1579    1.2004   48.9620 C.3     1  ZINC000560467340   -0.0700
      8 C8          0.5522    1.7052   47.6776 C.ar    1  ZINC000560467340   -0.0900
      9 C9         -0.7147    1.2971   47.3042 C.ar    1  ZINC000560467340   -0.0900
     10 C10        -1.2711    1.7594   46.1266 C.ar    1  ZINC000560467340   -0.1500
     11 C11        -0.5592    2.6319   45.3209 C.ar    1  ZINC000560467340    0.1000
     12 F12        -1.1023    3.0848   44.1698 F       1  ZINC000560467340   -0.1400
     13 C13         0.7094    3.0402   45.6962 C.ar    1  ZINC000560467340   -0.1500
     14 C14         1.2619    2.5804   46.8766 C.ar    1  ZINC000560467340   -0.0900
     15 C15         1.2906    1.8039   51.4030 C.3     1  ZINC000560467340   -0.1300
     16 C16         2.7971    1.7166   51.7522 C.3     1  ZINC000560467340   -0.1200
     17 C17         3.3779    2.9854   51.0801 C.3     1  ZINC000560467340   -0.1600
     18 C18         2.5947    3.1045   49.7564 C.3     1  ZINC000560467340    0.1100
     19 H19         3.1610    2.6471   48.9451 H       1  ZINC000560467340    0.0600
     20 O20         2.3396    4.4791   49.4605 O.3     1  ZINC000560467340   -0.5500
     21 C21        -3.5985    1.9072   51.0521 C.2     1  ZINC000560467340   -0.6900
     22 C22        -4.8086    2.2371   51.5059 C.2     1  ZINC000560467340   -0.1000
     23 S23        -5.9269    0.9094   51.2229 S.3     1  ZINC000560467340    0.1500
     24 C24        -4.6503   -0.0474   50.4822 C.2     1  ZINC000560467340   -0.2200
     25 C25        -3.5125    0.6488   50.4819 C.2     1  ZINC000560467340   -0.0700
     26 H26        -1.3859    1.8500   49.3489 H       1  ZINC000560467340    0.4200
     27 H27         0.1251    3.7533   48.7889 H       1  ZINC000560467340    0.0600
     28 H28         0.1494    4.1035   50.5339 H       1  ZINC000560467340    0.0800
     29 H29         2.1506    0.7973   48.7617 H       1  ZINC000560467340    0.0800
     30 H30         0.5249    0.4170   49.3787 H       1  ZINC000560467340    0.0800
     31 H31        -1.2697    0.6166   47.9328 H       1  ZINC000560467340    0.1300
     32 H32        -2.2606    1.4399   45.8347 H       1  ZINC000560467340    0.1400
     33 H33         1.2658    3.7205   45.0683 H       1  ZINC000560467340    0.1400
     34 H34         2.2514    2.8991   47.1696 H       1  ZINC000560467340    0.1300
     35 H35         0.7811    2.4891   52.0806 H       1  ZINC000560467340    0.0700
     36 H36         0.8320    0.8159   51.4421 H       1  ZINC000560467340    0.0800
     37 H37         2.9459    1.7486   52.8315 H       1  ZINC000560467340    0.0700
     38 H38         3.2407    0.8165   51.3266 H       1  ZINC000560467340    0.0700
     39 H39         3.2055    3.8613   51.7055 H       1  ZINC000560467340    0.0800
     40 H40         4.4426    2.8595   50.8834 H       1  ZINC000560467340    0.0700
     41 H41         1.4079    4.7293   49.5266 H       1  ZINC000560467340    0.3800
     42 H42        -5.0629    3.1758   51.9756 H       1  ZINC000560467340    0.1800
     43 H43        -4.7705   -1.0441   50.0843 H       1  ZINC000560467340    0.1700
     44 H44        -2.5920    0.2572   50.0748 H       1  ZINC000560467340    0.1500
@<TRIPOS>BOND
     1     1     2    2
     2     2     3    2
     3     2     4   am
     4     2    21    1
     5     4     5    1
     6     4    26    1
     7     5     6    1
     8     5    27    1
     9     5    28    1
    10     6    18    1
    11     6     7    1
    12     6    15    1
    13     7     8    1
    14     7    29    1
    15     7    30    1
    16     8    14   ar
    17     8     9   ar
    18     9    10   ar
    19     9    31    1
    20    10    11   ar
    21    10    32    1
    22    11    12    1
    23    11    13   ar
    24    13    14   ar
    25    13    33    1
    26    14    34    1
    27    15    16    1
    28    15    35    1
    29    15    36    1
    30    16    17    1
    31    16    37    1
    32    16    38    1
    33    17    18    1
    34    17    39    1
    35    17    40    1
    36    18    19    1
    37    18    20    1
    38    20    41    1
    39    21    25    1
    40    21    22    2
    41    22    23    1
    42    22    42    1
    43    23    24    1
    44    24    25    2
    45    24    43    1
    46    25    44    1
@<TRIPOS>SUBSTRUCTURE
     1 ZINC000560467340        1 TEMP              0 ****  ****    0 ROOT


##########                                Name:    ZINC000098105561
##########                DOCK_Rotatable_Bonds:                   5
##########                         Heavy_Atoms:                  25
##########                    Molecular_Weight:             368.336
##########                DOCK_Rotatable_Bonds:                   5
##########                       Formal_Charge:         2.98023e-08
##########                     HBond_Acceptors:                   9
##########                        HBond_Donors:                   0
##########                         Heavy_Atoms:                  25
##########                          Grid_Score:          -25.595169
##########                     Grid_vdw_energy:          -24.714188
##########                      Grid_es_energy:           -0.880982
##########           Internal_energy_repulsive:           10.510809

@<TRIPOS>MOLECULE
ZINC000098105561
 36 38 1 0 0
SMALL
USER_CHARGES


@<TRIPOS>ATOM
      1 C1         -9.5001    4.8030   49.1694 C.3     1  ZINC000098105561   -0.0800
      2 C2         -8.8487    4.1212   50.3448 C.2     1  ZINC000098105561    0.0900
      3 C3         -9.5252    3.7690   51.4405 C.2     1  ZINC000098105561   -0.2700
      4 S4         -8.3962    3.0075   52.5582 S.3     1  ZINC000098105561    0.1600
      5 C5         -7.1212    3.2366   51.4425 C.2     1  ZINC000098105561    0.2500
      6 N6         -5.8044    2.8500   51.6498 N.am    1  ZINC000098105561   -0.5200
      7 C7         -5.4822    1.4389   51.8761 C.3     1  ZINC000098105561    0.0500
      8 C8         -5.6028    0.6707   50.5585 C.3     1  ZINC000098105561    0.4400
      9 F9         -6.9541    0.4594   50.2638 F       1  ZINC000098105561   -0.1700
     10 F10        -5.0118    1.4127   49.5302 F       1  ZINC000098105561   -0.1700
     11 F11        -4.9529   -0.5625   50.6765 F       1  ZINC000098105561   -0.1700
     12 C12        -4.8221    3.7728   51.6430 C.2     1  ZINC000098105561    0.5800
     13 O13        -5.0894    4.9433   51.4554 O.2     1  ZINC000098105561   -0.4100
     14 C14        -3.4169    3.3604   51.8642 C.2     1  ZINC000098105561    0.0800
     15 C15        -2.7813    3.7932   52.9810 C.2     1  ZINC000098105561   -0.2000
     16 C16        -1.3790    3.3916   53.1842 C.2     1  ZINC000098105561    0.4200
     17 O17        -0.8116    3.5453   54.2514 O.2     1  ZINC000098105561   -0.4300
     18 C18        -0.7017    2.7913   52.0171 C.ar    1  ZINC000098105561   -0.2200
     19 C19         0.6788    2.6052   51.9926 C.ar    1  ZINC000098105561   -0.0300
     20 C20         1.2684    2.0465   50.8794 C.ar    1  ZINC000098105561   -0.1400
     21 C21         0.4926    1.6731   49.7912 C.ar    1  ZINC000098105561   -0.0500
     22 C22        -0.8740    1.8501   49.8047 C.ar    1  ZINC000098105561   -0.1400
     23 C23        -1.4918    2.4086   50.9189 C.ar    1  ZINC000098105561    0.1400
     24 O24        -2.8293    2.5707   50.9551 O.3     1  ZINC000098105561   -0.2300
     25 N25        -7.5646    3.8189   50.3721 N.2     1  ZINC000098105561   -0.4600
     26 H26        -9.8635    4.0511   48.4689 H       1  ZINC000098105561    0.0800
     27 H27       -10.3363    5.4088   49.5184 H       1  ZINC000098105561    0.0800
     28 H28        -8.7716    5.4422   48.6706 H       1  ZINC000098105561    0.0800
     29 H29       -10.5801    3.9243   51.6119 H       1  ZINC000098105561    0.1900
     30 H30        -4.4631    1.3550   52.2536 H       1  ZINC000098105561    0.1700
     31 H31        -6.1756    1.0203   52.6055 H       1  ZINC000098105561    0.1400
     32 H32        -3.2895    4.4161   53.7021 H       1  ZINC000098105561    0.1800
     33 H33         1.2824    2.8970   52.8393 H       1  ZINC000098105561    0.1400
     34 H34         2.3381    1.8991   50.8537 H       1  ZINC000098105561    0.1400
     35 H35         0.9656    1.2388   48.9228 H       1  ZINC000098105561    0.1400
     36 H36        -1.4654    1.5549   48.9506 H       1  ZINC000098105561    0.1400
@<TRIPOS>BOND
     1     1     2    1
     2     1    26    1
     3     1    27    1
     4     1    28    1
     5     2    25    1
     6     2     3    2
     7     3     4    1
     8     3    29    1
     9     4     5    1
    10     5     6    1
    11     5    25    2
    12     6     7    1
    13     6    12   am
    14     7     8    1
    15     7    30    1
    16     7    31    1
    17     8     9    1
    18     8    10    1
    19     8    11    1
    20    12    13    2
    21    12    14    1
    22    14    24    1
    23    14    15    2
    24    15    16    1
    25    15    32    1
    26    16    17    2
    27    16    18    1
    28    18    23   ar
    29    18    19   ar
    30    19    20   ar
    31    19    33    1
    32    20    21   ar
    33    20    34    1
    34    21    22   ar
    35    21    35    1
    36    22    23   ar
    37    22    36    1
    38    23    24    1
@<TRIPOS>SUBSTRUCTURE
     1 ZINC000098105561        1 TEMP              0 ****  ****    0 ROOT


##########                                Name:    ZINC001179023006
##########                DOCK_Rotatable_Bonds:                   3
##########                         Heavy_Atoms:                  25
##########                    Molecular_Weight:             340.465
##########                DOCK_Rotatable_Bonds:                   3
##########                       Formal_Charge:          -0.0100005
##########                     HBond_Acceptors:                   4
##########                        HBond_Donors:                   1
##########                         Heavy_Atoms:                  25
##########                          Grid_Score:          -25.487314
##########                     Grid_vdw_energy:          -24.331734
##########                      Grid_es_energy:           -1.155580
##########           Internal_energy_repulsive:           29.198320

@<TRIPOS>MOLECULE
ZINC001179023006
 53 56 1 0 0
SMALL
USER_CHARGES


@<TRIPOS>ATOM
      1 C1         -1.1167    0.4891   44.6535 C.3     1  ZINC001179023006   -0.1500
      2 C2         -0.8010    1.9643   44.9080 C.3     1  ZINC001179023006   -0.1100
      3 C3          0.6275    2.0957   45.4400 C.3     1  ZINC001179023006   -0.1100
      4 C4          0.8746    1.2561   46.6668 C.2     1  ZINC001179023006    0.5400
      5 O5          1.6313    0.3099   46.6117 O.2     1  ZINC001179023006   -0.5400
      6 N6          0.2549    1.5568   47.8253 N.am    1  ZINC001179023006   -0.5900
      7 C7         -0.6598    2.7032   47.9102 C.3     1  ZINC001179023006    0.1000
      8 C8         -0.2282    3.6010   49.0675 C.3     1  ZINC001179023006   -0.1200
      9 C9         -0.1567    2.7684   50.3559 C.3     1  ZINC001179023006   -0.0500
     10 C10         0.9064    1.6751   50.1737 C.3     1  ZINC001179023006   -0.1100
     11 C11         0.4851    0.7482   49.0302 C.3     1  ZINC001179023006    0.0900
     12 C12         0.2541    3.6711   51.5084 C.3     1  ZINC001179023006   -0.0800
     13 C13        -0.6836    4.8287   51.6659 C.ar    1  ZINC001179023006   -0.0700
     14 C14        -0.2467    6.0945   51.2884 C.ar    1  ZINC001179023006   -0.1100
     15 C15        -1.1081    7.1714   51.3625 C.ar    1  ZINC001179023006   -0.1100
     16 C16        -2.4035    6.9974   51.8121 C.ar    1  ZINC001179023006   -0.1200
     17 C17        -2.8308    5.7400   52.2004 C.ar    1  ZINC001179023006   -0.1000
     18 C18        -1.9557    4.6706   52.1303 C.ar    1  ZINC001179023006   -0.1100
     19 C19        -2.4070    3.3040   52.5788 C.3     1  ZINC001179023006    0.1400
     20 N20        -2.4186    2.3605   51.4830 N.am    1  ZINC001179023006   -0.7000
     21 C21        -1.4851    2.1239   50.5976 C.2     1  ZINC001179023006    0.5200
     22 O22        -1.7436    1.2181   49.8337 O.2     1  ZINC001179023006   -0.5500
     23 C23         1.0994    3.5521   45.5850 C.3     1  ZINC001179023006   -0.1200
     24 C24         2.4630    3.0791   45.0494 C.3     1  ZINC001179023006   -0.1400
     25 C25         1.7059    1.9343   44.3557 C.3     1  ZINC001179023006   -0.1300
     26 H26        -2.1205    0.3987   44.2384 H       1  ZINC001179023006    0.0600
     27 H27        -0.3937    0.0792   43.9482 H       1  ZINC001179023006    0.0500
     28 H28        -1.0609   -0.0618   45.5924 H       1  ZINC001179023006    0.0600
     29 H29        -1.5004    2.3640   45.6423 H       1  ZINC001179023006    0.0700
     30 H30        -0.8944    2.5220   43.9762 H       1  ZINC001179023006    0.0700
     31 H31        -0.6246    3.2683   46.9788 H       1  ZINC001179023006    0.0900
     32 H32        -1.6752    2.3482   48.0861 H       1  ZINC001179023006    0.0800
     33 H33        -0.9514    4.4066   49.1942 H       1  ZINC001179023006    0.0800
     34 H34         0.7533    4.0233   48.8520 H       1  ZINC001179023006    0.0800
     35 H35         0.9977    1.0990   51.0945 H       1  ZINC001179023006    0.0800
     36 H36         1.8655    2.1348   49.9353 H       1  ZINC001179023006    0.0800
     37 H37        -0.4331    0.2273   49.3015 H       1  ZINC001179023006    0.1200
     38 H38         1.2757    0.0228   48.8378 H       1  ZINC001179023006    0.0800
     39 H39         0.2598    3.0901   52.4307 H       1  ZINC001179023006    0.0800
     40 H40         1.2590    4.0503   51.3225 H       1  ZINC001179023006    0.0900
     41 H41         0.7649    6.2347   50.9373 H       1  ZINC001179023006    0.1200
     42 H42        -0.7681    8.1533   51.0684 H       1  ZINC001179023006    0.1200
     43 H43        -3.0788    7.8388   51.8599 H       1  ZINC001179023006    0.1300
     44 H44        -3.8401    5.5944   52.5559 H       1  ZINC001179023006    0.1300
     45 H45        -3.4121    3.3796   52.9938 H       1  ZINC001179023006    0.0900
     46 H46        -1.7302    2.9421   53.3528 H       1  ZINC001179023006    0.0800
     47 H47        -3.2272    1.8324   51.3921 H       1  ZINC001179023006    0.4000
     48 H48         0.5857    4.2458   44.9196 H       1  ZINC001179023006    0.0900
     49 H49         1.1316    3.8998   46.6176 H       1  ZINC001179023006    0.0800
     50 H50         3.1443    2.7418   45.8305 H       1  ZINC001179023006    0.0800
     51 H51         2.9284    3.7786   44.3550 H       1  ZINC001179023006    0.0700
     52 H52         2.2273    0.9779   44.3973 H       1  ZINC001179023006    0.0700
     53 H53         1.3584    2.1849   43.3534 H       1  ZINC001179023006    0.0900
@<TRIPOS>BOND
     1     1     2    1
     2     1    26    1
     3     1    27    1
     4     1    28    1
     5     2     3    1
     6     2    29    1
     7     2    30    1
     8     3    25    1
     9     3     4    1
    10     3    23    1
    11     4     5    2
    12     4     6   am
    13     6    11    1
    14     6     7    1
    15     7     8    1
    16     7    31    1
    17     7    32    1
    18     8     9    1
    19     8    33    1
    20     8    34    1
    21     9    21    1
    22     9    10    1
    23     9    12    1
    24    10    11    1
    25    10    35    1
    26    10    36    1
    27    11    37    1
    28    11    38    1
    29    12    13    1
    30    12    39    1
    31    12    40    1
    32    13    18   ar
    33    13    14   ar
    34    14    15   ar
    35    14    41    1
    36    15    16   ar
    37    15    42    1
    38    16    17   ar
    39    16    43    1
    40    17    18   ar
    41    17    44    1
    42    18    19    1
    43    19    20    1
    44    19    45    1
    45    19    46    1
    46    20    21   am
    47    20    47    1
    48    21    22    2
    49    23    24    1
    50    23    48    1
    51    23    49    1
    52    24    25    1
    53    24    50    1
    54    24    51    1
    55    25    52    1
    56    25    53    1
@<TRIPOS>SUBSTRUCTURE
     1 ZINC001179023006        1 TEMP              0 ****  ****    0 ROOT


##########                                Name:    ZINC000004040798
##########                DOCK_Rotatable_Bonds:                   3
##########                         Heavy_Atoms:                  22
##########                    Molecular_Weight:             361.151
##########                DOCK_Rotatable_Bonds:                   3
##########                       Formal_Charge:           0.0200003
##########                     HBond_Acceptors:                   6
##########                        HBond_Donors:                   1
##########                         Heavy_Atoms:                  22
##########                          Grid_Score:          -25.453592
##########                     Grid_vdw_energy:          -23.229599
##########                      Grid_es_energy:           -2.223994
##########           Internal_energy_repulsive:            4.064223

@<TRIPOS>MOLECULE
ZINC000004040798
 31 33 1 0 0
SMALL
USER_CHARGES


@<TRIPOS>ATOM
      1 O1         -5.2868    1.6588   49.7348 O.2     1  ZINC000004040798   -0.4800
      2 C2         -4.4604    1.7520   50.6228 C.2     1  ZINC000004040798    0.6100
      3 N3         -4.8558    1.9887   51.8893 N.am    1  ZINC000004040798   -0.6600
      4 C4         -6.2157    2.1328   52.1819 C.ar    1  ZINC000004040798    0.2300
      5 C5         -7.1166    1.1447   51.8076 C.ar    1  ZINC000004040798   -0.1300
      6 C6         -8.4593    1.2901   52.0980 C.ar    1  ZINC000004040798   -0.0100
      7 C7         -8.9071    2.4179   52.7606 C.ar    1  ZINC000004040798   -0.0600
      8 N8        -10.3466    2.5698   53.0699 N.pl3   1  ZINC000004040798    0.0300
      9 O9        -11.1352    1.7019   52.7406 O.2     1  ZINC000004040798   -0.1500
     10 O10       -10.7427    3.5627   53.6536 O.2     1  ZINC000004040798   -0.1500
     11 C11        -8.0131    3.4042   53.1357 C.ar    1  ZINC000004040798    0.0000
     12 C12        -6.6680    3.2629   52.8531 C.ar    1  ZINC000004040798   -0.1400
     13 Br13       -5.4460    4.6117   53.3661 Br      1  ZINC000004040798    0.0000
     14 C14        -3.0315    1.6006   50.3154 C.2     1  ZINC000004040798   -0.0500
     15 C15        -2.0181    1.7784   51.2021 C.2     1  ZINC000004040798   -0.0800
     16 C16        -0.7827    1.5250   50.4615 C.ar    1  ZINC000004040798   -0.1500
     17 C17         0.5734    1.5428   50.7951 C.ar    1  ZINC000004040798   -0.0500
     18 C18         1.5090    1.2498   49.8430 C.ar    1  ZINC000004040798   -0.1400
     19 C19         1.1202    0.9357   48.5482 C.ar    1  ZINC000004040798   -0.0700
     20 C20        -0.2130    0.9127   48.1988 C.ar    1  ZINC000004040798   -0.1100
     21 C21        -1.1827    1.2066   49.1501 C.ar    1  ZINC000004040798    0.0800
     22 O22        -2.5284    1.2583   49.1108 O.3     1  ZINC000004040798   -0.1900
     23 H23        -4.1971    2.0589   52.5979 H       1  ZINC000004040798    0.4300
     24 H24        -6.7679    0.2635   51.2896 H       1  ZINC000004040798    0.1800
     25 H25        -9.1603    0.5219   51.8066 H       1  ZINC000004040798    0.1700
     26 H26        -8.3660    4.2839   53.6532 H       1  ZINC000004040798    0.1700
     27 H27        -2.1066    2.0521   52.2431 H       1  ZINC000004040798    0.1800
     28 H28         0.8814    1.7872   51.8010 H       1  ZINC000004040798    0.1400
     29 H29         2.5579    1.2633   50.0997 H       1  ZINC000004040798    0.1400
     30 H30         1.8707    0.7070   47.8060 H       1  ZINC000004040798    0.1400
     31 H31        -0.5035    0.6665   47.1881 H       1  ZINC000004040798    0.1400
@<TRIPOS>BOND
     1     1     2    2
     2     2     3   am
     3     2    14    1
     4     3     4    1
     5     3    23    1
     6     4    12   ar
     7     4     5   ar
     8     5     6   ar
     9     5    24    1
    10     6     7   ar
    11     6    25    1
    12     7     8    1
    13     7    11   ar
    14     8     9    2
    15     8    10    2
    16    11    12   ar
    17    11    26    1
    18    12    13    1
    19    14    22    1
    20    14    15    2
    21    15    16    1
    22    15    27    1
    23    16    21   ar
    24    16    17   ar
    25    17    18   ar
    26    17    28    1
    27    18    19   ar
    28    18    29    1
    29    19    20   ar
    30    19    30    1
    31    20    21   ar
    32    20    31    1
    33    21    22    1
@<TRIPOS>SUBSTRUCTURE
     1 ZINC000004040798        1 TEMP              0 ****  ****    0 ROOT


##########                                Name:    ZINC000794876634
##########                DOCK_Rotatable_Bonds:                   4
##########                         Heavy_Atoms:                  24
##########                    Molecular_Weight:             389.249
##########                DOCK_Rotatable_Bonds:                   4
##########                       Formal_Charge:        -4.47035e-08
##########                     HBond_Acceptors:                   5
##########                        HBond_Donors:                   0
##########                         Heavy_Atoms:                  24
##########                          Grid_Score:          -25.231480
##########                     Grid_vdw_energy:          -24.853516
##########                      Grid_es_energy:           -0.377963
##########           Internal_energy_repulsive:           53.846455

@<TRIPOS>MOLECULE
ZINC000794876634
 41 43 1 0 0
SMALL
USER_CHARGES


@<TRIPOS>ATOM
      1 C1         -9.3262    6.0323   55.2557 C.3     1  ZINC000794876634    0.0200
      2 O2         -8.3836    5.1247   55.8300 O.3     1  ZINC000794876634   -0.3000
      3 C3         -7.2240    4.9287   55.1510 C.ar    1  ZINC000794876634    0.1300
      4 C4         -6.9485    5.6850   54.0193 C.ar    1  ZINC000794876634   -0.1800
      5 C5         -5.7747    5.4911   53.3257 C.ar    1  ZINC000794876634   -0.0400
      6 C6         -5.4796    6.3139   52.0981 C.3     1  ZINC000794876634   -0.1200
      7 C7         -4.8547    4.5287   53.7623 C.ar    1  ZINC000794876634   -0.1000
      8 C8         -3.6042    4.3199   53.0269 C.2     1  ZINC000794876634    0.0600
      9 C9         -3.5127    3.3150   52.1077 C.2     1  ZINC000794876634   -0.1700
     10 C10        -2.3474    2.9581   51.2804 C.2     1  ZINC000794876634    0.5700
     11 O11        -1.2650    3.5154   51.2899 O.2     1  ZINC000794876634   -0.4900
     12 N12        -2.6893    1.9089   50.5140 N.am    1  ZINC000794876634   -0.5300
     13 C13        -1.7914    1.2631   49.5533 C.3     1  ZINC000794876634    0.0800
     14 C14        -3.9974    1.5130   50.7460 C.ar    1  ZINC000794876634    0.3700
     15 N15        -4.7276    0.5390   50.2169 N.ar    1  ZINC000794876634   -0.4900
     16 C16        -5.9755    0.3266   50.5827 C.ar    1  ZINC000794876634    0.1800
     17 C17        -6.5920    1.1110   51.5413 C.ar    1  ZINC000794876634   -0.1800
     18 Br18       -8.3845    0.7784   52.0435 Br      1  ZINC000794876634   -0.0200
     19 C19        -5.8774    2.1446   52.1294 C.ar    1  ZINC000794876634    0.0000
     20 C20        -4.5602    2.3415   51.7284 C.ar    1  ZINC000794876634   -0.1400
     21 C21        -5.1343    3.7664   54.9053 C.ar    1  ZINC000794876634   -0.1400
     22 C22        -6.3109    3.9721   55.5960 C.ar    1  ZINC000794876634    0.0900
     23 O23        -6.5853    3.2349   56.7054 O.3     1  ZINC000794876634   -0.3000
     24 C24        -7.9088    3.3292   57.2361 C.3     1  ZINC000794876634    0.0200
     25 H25       -10.2053    6.0969   55.8969 H       1  ZINC000794876634    0.1000
     26 H26        -8.8709    7.0183   55.1628 H       1  ZINC000794876634    0.0600
     27 H27        -9.6213    5.6738   54.2695 H       1  ZINC000794876634    0.0600
     28 H28        -7.6570    6.4271   53.6820 H       1  ZINC000794876634    0.1400
     29 H29        -4.9459    7.2193   52.3872 H       1  ZINC000794876634    0.0800
     30 H30        -4.8644    5.7333   51.4108 H       1  ZINC000794876634    0.0700
     31 H31        -6.4151    6.5843   51.6084 H       1  ZINC000794876634    0.0700
     32 H32        -2.7552    4.9610   53.2123 H       1  ZINC000794876634    0.1500
     33 H33        -0.8242    1.7657   49.5655 H       1  ZINC000794876634    0.0900
     34 H34        -1.6601    0.2159   49.8259 H       1  ZINC000794876634    0.0800
     35 H35        -2.2217    1.3273   48.5539 H       1  ZINC000794876634    0.0800
     36 H36        -6.5301   -0.4783   50.1234 H       1  ZINC000794876634    0.1800
     37 H37        -6.3296    2.7754   52.8804 H       1  ZINC000794876634    0.1600
     38 H38        -4.4289    3.0231   55.2464 H       1  ZINC000794876634    0.1400
     39 H39        -8.0868    4.3448   57.5897 H       1  ZINC000794876634    0.0500
     40 H40        -8.6308    3.0837   56.4574 H       1  ZINC000794876634    0.0600
     41 H41        -8.0181    2.6311   58.0661 H       1  ZINC000794876634    0.1100
@<TRIPOS>BOND
     1     1     2    1
     2     1    25    1
     3     1    26    1
     4     1    27    1
     5     2     3    1
     6     3    22   ar
     7     3     4   ar
     8     4     5   ar
     9     4    28    1
    10     5     6    1
    11     5     7   ar
    12     6    29    1
    13     6    30    1
    14     6    31    1
    15     7     8    1
    16     7    21   ar
    17     8     9    2
    18     8    32    1
    19     9    20    1
    20     9    10    1
    21    10    11    2
    22    10    12   am
    23    12    13    1
    24    12    14    1
    25    13    33    1
    26    13    34    1
    27    13    35    1
    28    14    20   ar
    29    14    15   ar
    30    15    16   ar
    31    16    17   ar
    32    16    36    1
    33    17    18    1
    34    17    19   ar
    35    19    20   ar
    36    19    37    1
    37    21    22   ar
    38    21    38    1
    39    22    23    1
    40    23    24    1
    41    24    39    1
    42    24    40    1
    43    24    41    1
@<TRIPOS>SUBSTRUCTURE
     1 ZINC000794876634        1 TEMP              0 ****  ****    0 ROOT


##########                                Name:    ZINC000550782577
##########                DOCK_Rotatable_Bonds:                   5
##########                         Heavy_Atoms:                  25
##########                    Molecular_Weight:              338.45
##########                DOCK_Rotatable_Bonds:                   5
##########                       Formal_Charge:         -0.00999954
##########                     HBond_Acceptors:                   4
##########                        HBond_Donors:                   0
##########                         Heavy_Atoms:                  25
##########                          Grid_Score:          -25.225780
##########                     Grid_vdw_energy:          -25.146030
##########                      Grid_es_energy:           -0.079750
##########           Internal_energy_repulsive:           42.526966

@<TRIPOS>MOLECULE
ZINC000550782577
 51 53 1 0 0
SMALL
USER_CHARGES


@<TRIPOS>ATOM
      1 C1         -3.5366    3.6013   51.7561 C.3     1  ZINC000550782577    0.0700
      2 N2         -3.4272    2.3100   51.0729 N.am    1  ZINC000550782577   -0.5900
      3 C3         -4.5238    1.5475   50.8933 C.2     1  ZINC000550782577    0.5800
      4 O4         -4.4331    0.4761   50.3265 O.2     1  ZINC000550782577   -0.5400
      5 C5         -5.8382    2.0146   51.3860 C.ar    1  ZINC000550782577    0.0300
      6 C6         -6.7576    2.5578   50.4896 C.ar    1  ZINC000550782577   -0.0600
      7 C7         -7.9836    2.9913   50.9621 C.ar    1  ZINC000550782577   -0.1200
      8 C8         -8.2517    2.8668   52.3223 C.ar    1  ZINC000550782577    0.1100
      9 O9         -9.4418    3.2790   52.8280 O.3     1  ZINC000550782577   -0.3000
     10 C10       -10.3823    2.2635   53.1834 C.3     1  ZINC000550782577    0.1000
     11 C11       -10.4124    2.1063   54.7050 C.3     1  ZINC000550782577   -0.2000
     12 C12       -11.7733    2.6594   52.6840 C.3     1  ZINC000550782577   -0.1400
     13 C13        -9.9682    0.9377   52.5417 C.3     1  ZINC000550782577   -0.2000
     14 C14        -7.2845    2.3141   53.1583 C.ar    1  ZINC000550782577   -0.0100
     15 N15        -6.1322    1.9072   52.6768 N.ar    1  ZINC000550782577   -0.4100
     16 C16        -2.1255    1.8475   50.5849 C.3     1  ZINC000550782577    0.1400
     17 H17        -1.8867    0.8835   51.0341 H       1  ZINC000550782577    0.1100
     18 C18        -2.1655    1.7101   49.0585 C.3     1  ZINC000550782577   -0.1300
     19 C19        -0.8892    1.0047   48.6044 C.3     1  ZINC000550782577   -0.0800
     20 C20         0.3247    1.6799   49.1871 C.ar    1  ZINC000550782577   -0.0800
     21 C21         1.5543    1.4227   48.5952 C.ar    1  ZINC000550782577   -0.1200
     22 C22         2.7043    2.0061   49.0858 C.ar    1  ZINC000550782577   -0.1200
     23 C23         2.6331    2.8530   50.1758 C.ar    1  ZINC000550782577   -0.1200
     24 C24         1.4120    3.1117   50.7639 C.ar    1  ZINC000550782577   -0.1200
     25 C25         0.2529    2.5284   50.2694 C.ar    1  ZINC000550782577   -0.0700
     26 C26        -1.0477    2.8662   50.9502 C.3     1  ZINC000550782577   -0.0900
     27 H27        -3.5051    3.4457   52.8344 H       1  ZINC000550782577    0.0600
     28 H28        -2.7071    4.2421   51.4570 H       1  ZINC000550782577    0.0600
     29 H29        -4.4791    4.0771   51.4851 H       1  ZINC000550782577    0.1100
     30 H30        -6.5158    2.6395   49.4402 H       1  ZINC000550782577    0.1600
     31 H31        -8.7155    3.4166   50.2913 H       1  ZINC000550782577    0.1500
     32 H32       -11.0761    2.8565   55.1348 H       1  ZINC000550782577    0.0700
     33 H33       -10.7755    1.1108   54.9603 H       1  ZINC000550782577    0.0800
     34 H34        -9.4068    2.2396   55.1040 H       1  ZINC000550782577    0.0800
     35 H35       -11.7519    2.7714   51.6000 H       1  ZINC000550782577    0.0700
     36 H36       -12.4907    1.8848   52.9552 H       1  ZINC000550782577    0.0800
     37 H37       -12.0683    3.6039   53.1412 H       1  ZINC000550782577    0.0700
     38 H38        -8.9792    0.6534   52.9011 H       1  ZINC000550782577    0.0800
     39 H39       -10.6882    0.1642   52.8091 H       1  ZINC000550782577    0.0800
     40 H40        -9.9423    1.0510   51.4580 H       1  ZINC000550782577    0.0700
     41 H41        -7.4863    2.2148   54.2146 H       1  ZINC000550782577    0.1900
     42 H42        -3.0345    1.1210   48.7656 H       1  ZINC000550782577    0.0700
     43 H43        -2.2208    2.6985   48.6023 H       1  ZINC000550782577    0.0700
     44 H44        -0.9158   -0.0339   48.9341 H       1  ZINC000550782577    0.0800
     45 H45        -0.8296    1.0346   47.5164 H       1  ZINC000550782577    0.0800
     46 H46         1.6108    0.7603   47.7441 H       1  ZINC000550782577    0.1200
     47 H47         3.6570    1.8015   48.6200 H       1  ZINC000550782577    0.1200
     48 H48         3.5302    3.3105   50.5662 H       1  ZINC000550782577    0.1200
     49 H49         1.3573    3.7733   51.6158 H       1  ZINC000550782577    0.1200
     50 H50        -1.3707    3.8587   50.6361 H       1  ZINC000550782577    0.0800
     51 H51        -0.8998    2.8621   52.0301 H       1  ZINC000550782577    0.0800
@<TRIPOS>BOND
     1     1     2    1
     2     1    27    1
     3     1    28    1
     4     1    29    1
     5     2     3   am
     6     2    16    1
     7     3     4    2
     8     3     5    1
     9     5    15   ar
    10     5     6   ar
    11     6     7   ar
    12     6    30    1
    13     7     8   ar
    14     7    31    1
    15     8     9    1
    16     8    14   ar
    17     9    10    1
    18    10    11    1
    19    10    12    1
    20    10    13    1
    21    11    32    1
    22    11    33    1
    23    11    34    1
    24    12    35    1
    25    12    36    1
    26    12    37    1
    27    13    38    1
    28    13    39    1
    29    13    40    1
    30    14    15   ar
    31    14    41    1
    32    16    17    1
    33    16    26    1
    34    16    18    1
    35    18    19    1
    36    18    42    1
    37    18    43    1
    38    19    20    1
    39    19    44    1
    40    19    45    1
    41    20    25   ar
    42    20    21   ar
    43    21    22   ar
    44    21    46    1
    45    22    23   ar
    46    22    47    1
    47    23    24   ar
    48    23    48    1
    49    24    25   ar
    50    24    49    1
    51    25    26    1
    52    26    50    1
    53    26    51    1
@<TRIPOS>SUBSTRUCTURE
     1 ZINC000550782577        1 TEMP              0 ****  ****    0 ROOT


##########                                Name:    ZINC000942661662
##########                DOCK_Rotatable_Bonds:                   6
##########                         Heavy_Atoms:                  25
##########                    Molecular_Weight:             343.426
##########                DOCK_Rotatable_Bonds:                   6
##########                       Formal_Charge:           0.0399997
##########                     HBond_Acceptors:                   6
##########                        HBond_Donors:                   1
##########                         Heavy_Atoms:                  25
##########                          Grid_Score:          -24.843300
##########                     Grid_vdw_energy:          -23.823074
##########                      Grid_es_energy:           -1.020225
##########           Internal_energy_repulsive:           40.235645

@<TRIPOS>MOLECULE
ZINC000942661662
 50 52 1 0 0
SMALL
USER_CHARGES


@<TRIPOS>ATOM
      1 C1          0.9653    3.3334   50.5940 C.3     1  ZINC000942661662   -0.1700
      2 C2         -0.4176    3.7099   50.0586 C.3     1  ZINC000942661662    0.1000
      3 N3         -1.3721    3.7667   51.1685 N.am    1  ZINC000942661662   -0.6000
      4 C4         -1.3938    4.8392   51.9842 C.2     1  ZINC000942661662    0.6000
      5 O5         -0.6210    5.7599   51.7991 O.2     1  ZINC000942661662   -0.5200
      6 C6         -2.3541    4.8966   53.1008 C.2     1  ZINC000942661662   -0.2400
      7 C7         -2.2499    4.2754   54.3108 C.2     1  ZINC000942661662    0.0700
      8 C8         -1.1119    3.3921   54.7532 C.3     1  ZINC000942661662   -0.0900
      9 O9         -3.3286    4.5834   55.0374 O.3     1  ZINC000942661662   -0.1700
     10 C10        -4.1527    5.3915   54.3525 C.2     1  ZINC000942661662   -0.0300
     11 C11        -3.6216    5.6402   53.1455 C.2     1  ZINC000942661662   -0.1900
     12 C12        -2.3030    2.6577   51.3915 C.3     1  ZINC000942661662    0.1400
     13 H13        -2.0057    2.0693   52.2595 H       1  ZINC000942661662    0.1100
     14 C14        -2.4180    1.7653   50.1275 C.3     1  ZINC000942661662   -0.1400
     15 C15        -3.8270    1.1510   50.2650 C.3     1  ZINC000942661662    0.1000
     16 N16        -4.6038    2.0339   51.1474 N.am    1  ZINC000942661662   -0.6200
     17 C17        -5.8796    1.8337   51.5333 C.2     1  ZINC000942661662    0.6100
     18 O18        -6.4852    0.8518   51.1464 O.2     1  ZINC000942661662   -0.5200
     19 C19        -6.5378    2.7994   52.4196 C.2     1  ZINC000942661662   -0.0600
     20 C20        -7.2149    3.9348   52.0282 C.2     1  ZINC000942661662   -0.0700
     21 C21        -7.4166    4.4144   50.6139 C.3     1  ZINC000942661662   -0.0900
     22 C22        -7.6798    4.5573   53.1910 C.2     1  ZINC000942661662   -0.2100
     23 C23        -7.2872    3.8079   54.2488 C.2     1  ZINC000942661662    0.0500
     24 C24        -7.5764    4.1146   55.6956 C.3     1  ZINC000942661662   -0.0900
     25 N25        -6.5971    2.7340   53.7934 N.pl3   1  ZINC000942661662   -0.5400
     26 C26        -3.7557    3.1740   51.5419 C.3     1  ZINC000942661662    0.0900
     27 H27         1.6756    3.2911   49.7682 H       1  ZINC000942661662    0.0700
     28 H28         1.2916    4.0821   51.3158 H       1  ZINC000942661662    0.0600
     29 H29         0.9141    2.3588   51.0795 H       1  ZINC000942661662    0.0600
     30 H30        -0.3663    4.6844   49.5731 H       1  ZINC000942661662    0.0900
     31 H31        -0.7439    2.9611   49.3367 H       1  ZINC000942661662    0.0800
     32 H32        -0.3480    3.9996   55.2387 H       1  ZINC000942661662    0.0900
     33 H33        -1.4831    2.6456   55.4554 H       1  ZINC000942661662    0.0900
     34 H34        -0.6814    2.8923   53.8854 H       1  ZINC000942661662    0.1000
     35 H35        -5.0910    5.7833   54.7164 H       1  ZINC000942661662    0.2100
     36 H36        -4.0430    6.2547   52.3637 H       1  ZINC000942661662    0.1600
     37 H37        -2.3466    2.3680   49.2221 H       1  ZINC000942661662    0.1000
     38 H38        -1.6554    0.9865   50.1346 H       1  ZINC000942661662    0.0900
     39 H39        -4.3031    1.0929   49.2863 H       1  ZINC000942661662    0.0700
     40 H40        -3.7565    0.1563   50.7049 H       1  ZINC000942661662    0.0700
     41 H41        -8.3373    3.9896   50.2140 H       1  ZINC000942661662    0.0700
     42 H42        -7.4846    5.5023   50.6054 H       1  ZINC000942661662    0.0600
     43 H43        -6.5737    4.0982   49.9994 H       1  ZINC000942661662    0.0800
     44 H44        -8.2502    5.4732   53.2373 H       1  ZINC000942661662    0.1400
     45 H45        -8.5181    3.6479   55.9847 H       1  ZINC000942661662    0.0800
     46 H46        -6.7713    3.7238   56.3179 H       1  ZINC000942661662    0.0700
     47 H47        -7.6491    5.1937   55.8309 H       1  ZINC000942661662    0.0900
     48 H48        -6.2053    2.0382   54.3440 H       1  ZINC000942661662    0.4100
     49 H49        -3.9546    3.4547   52.5762 H       1  ZINC000942661662    0.0800
     50 H50        -3.9270    4.0217   50.8784 H       1  ZINC000942661662    0.1000
@<TRIPOS>BOND
     1     1     2    1
     2     1    27    1
     3     1    28    1
     4     1    29    1
     5     2     3    1
     6     2    30    1
     7     2    31    1
     8     3     4   am
     9     3    12    1
    10     4     5    2
    11     4     6    1
    12     6    11    1
    13     6     7    2
    14     7     8    1
    15     7     9    1
    16     8    32    1
    17     8    33    1
    18     8    34    1
    19     9    10    1
    20    10    11    2
    21    10    35    1
    22    11    36    1
    23    12    13    1
    24    12    26    1
    25    12    14    1
    26    14    15    1
    27    14    37    1
    28    14    38    1
    29    15    16    1
    30    15    39    1
    31    15    40    1
    32    16    17   am
    33    16    26    1
    34    17    18    2
    35    17    19    1
    36    19    25    1
    37    19    20    2
    38    20    21    1
    39    20    22    1
    40    21    41    1
    41    21    42    1
    42    21    43    1
    43    22    23    2
    44    22    44    1
    45    23    24    1
    46    23    25    1
    47    24    45    1
    48    24    46    1
    49    24    47    1
    50    25    48    1
    51    26    49    1
    52    26    50    1
@<TRIPOS>SUBSTRUCTURE
     1 ZINC000942661662        1 TEMP              0 ****  ****    0 ROOT


##########                                Name:    ZINC000616491533
##########                DOCK_Rotatable_Bonds:                   4
##########                         Heavy_Atoms:                  27
##########                    Molecular_Weight:             375.418
##########                DOCK_Rotatable_Bonds:                   4
##########                       Formal_Charge:           0.0299996
##########                     HBond_Acceptors:                   7
##########                        HBond_Donors:                   0
##########                         Heavy_Atoms:                  27
##########                          Grid_Score:          -24.766275
##########                     Grid_vdw_energy:          -25.460625
##########                      Grid_es_energy:            0.694350
##########           Internal_energy_repulsive:           13.044837

@<TRIPOS>MOLECULE
ZINC000616491533
 50 53 1 0 0
SMALL
USER_CHARGES


@<TRIPOS>ATOM
      1 C1          2.1605    2.0037   50.6085 C.3     1  ZINC000616491533   -0.1700
      2 C2          1.3608    3.1933   50.0736 C.3     1  ZINC000616491533    0.1400
      3 H3          1.5657    4.0785   50.6759 H       1  ZINC000616491533    0.0800
      4 C4          1.7401    3.4613   48.6003 C.3     1  ZINC000616491533   -0.1200
      5 C5          0.6111    2.7552   47.8210 C.3     1  ZINC000616491533   -0.0700
      6 C6         -0.6117    2.9710   48.7331 C.3     1  ZINC000616491533    0.0900
      7 N7         -0.0771    2.8860   50.1094 N.am    1  ZINC000616491533   -0.6100
      8 C8         -0.7895    2.5754   51.2105 C.2     1  ZINC000616491533    0.6100
      9 O9         -0.2430    2.5317   52.2960 O.2     1  ZINC000616491533   -0.5200
     10 C10        -2.2312    2.2888   51.0991 C.2     1  ZINC000616491533   -0.2400
     11 C11        -3.2608    3.0550   51.6080 C.2     1  ZINC000616491533    0.0700
     12 C12        -3.1185    4.3406   52.3811 C.3     1  ZINC000616491533    0.3400
     13 F13        -2.0532    4.2283   53.2810 F       1  ZINC000616491533   -0.1900
     14 F14        -2.8704    5.3933   51.4939 F       1  ZINC000616491533   -0.1600
     15 N15        -4.4146    2.4426   51.2858 N.pl3   1  ZINC000616491533   -0.2900
     16 C16        -5.7006    2.8930   51.6141 C.ar    1  ZINC000616491533    0.1300
     17 C17        -6.0672    4.2053   51.3473 C.ar    1  ZINC000616491533   -0.1000
     18 C18        -7.3352    4.6462   51.6719 C.ar    1  ZINC000616491533   -0.1000
     19 C19        -8.2391    3.7822   52.2624 C.ar    1  ZINC000616491533   -0.1000
     20 C20        -7.8770    2.4747   52.5293 C.ar    1  ZINC000616491533   -0.1000
     21 C21        -6.6125    2.0261   52.2014 C.ar    1  ZINC000616491533   -0.0900
     22 N22        -4.1136    1.2798   50.5677 N.2     1  ZINC000616491533   -0.2600
     23 C23        -2.8183    1.1813   50.4463 C.2     1  ZINC000616491533    0.0700
     24 C24         0.3973    3.4172   46.4675 C.3     1  ZINC000616491533   -0.1400
     25 C25        -0.6971    2.6636   45.7036 C.3     1  ZINC000616491533    0.0600
     26 O26        -0.3336    1.2857   45.5952 O.3     1  ZINC000616491533   -0.3800
     27 C27        -0.2041    0.6119   46.8489 C.3     1  ZINC000616491533    0.0600
     28 C28         0.9126    1.2717   47.6655 C.3     1  ZINC000616491533   -0.1500
     29 H29         1.9414    1.1198   50.0096 H       1  ZINC000616491533    0.0600
     30 H30         3.2259    2.2267   50.5509 H       1  ZINC000616491533    0.0600
     31 H31         1.8840    1.8173   51.6463 H       1  ZINC000616491533    0.0800
     32 H32         1.7429    4.5310   48.3910 H       1  ZINC000616491533    0.0800
     33 H33         2.7075    3.0182   48.3641 H       1  ZINC000616491533    0.0900
     34 H34        -1.0478    3.9542   48.5569 H       1  ZINC000616491533    0.0800
     35 H35        -1.3534    2.1901   48.5649 H       1  ZINC000616491533    0.0800
     36 H36        -4.0390    4.5379   52.9306 H       1  ZINC000616491533    0.1400
     37 H37        -5.3615    4.8808   50.8868 H       1  ZINC000616491533    0.1300
     38 H38        -7.6210    5.6669   51.4647 H       1  ZINC000616491533    0.1400
     39 H39        -9.2298    4.1295   52.5160 H       1  ZINC000616491533    0.1300
     40 H40        -8.5851    1.8022   52.9905 H       1  ZINC000616491533    0.1400
     41 H41        -6.3301    1.0047   52.4101 H       1  ZINC000616491533    0.1300
     42 H42        -2.2872    0.3885   49.9405 H       1  ZINC000616491533    0.2100
     43 H43         0.0919    4.4533   46.6133 H       1  ZINC000616491533    0.0800
     44 H44         1.3257    3.3875   45.8971 H       1  ZINC000616491533    0.0800
     45 H45        -1.6414    2.7497   46.2413 H       1  ZINC000616491533    0.0500
     46 H46        -0.8052    3.0910   44.7067 H       1  ZINC000616491533    0.1000
     47 H47        -1.1439    0.6791   47.3969 H       1  ZINC000616491533    0.0500
     48 H48         0.0423   -0.4356   46.6752 H       1  ZINC000616491533    0.1000
     49 H49         1.8642    1.1459   47.1489 H       1  ZINC000616491533    0.0800
     50 H50         0.9676    0.8063   48.6495 H       1  ZINC000616491533    0.0800
@<TRIPOS>BOND
     1     1     2    1
     2     1    29    1
     3     1    30    1
     4     1    31    1
     5     2     3    1
     6     2     7    1
     7     2     4    1
     8     4     5    1
     9     4    32    1
    10     4    33    1
    11     5    28    1
    12     5     6    1
    13     5    24    1
    14     6     7    1
    15     6    34    1
    16     6    35    1
    17     7     8   am
    18     8     9    2
    19     8    10    1
    20    10    23    1
    21    10    11    2
    22    11    12    1
    23    11    15    1
    24    12    13    1
    25    12    14    1
    26    12    36    1
    27    15    16    1
    28    15    22    1
    29    16    21   ar
    30    16    17   ar
    31    17    18   ar
    32    17    37    1
    33    18    19   ar
    34    18    38    1
    35    19    20   ar
    36    19    39    1
    37    20    21   ar
    38    20    40    1
    39    21    41    1
    40    22    23    2
    41    23    42    1
    42    24    25    1
    43    24    43    1
    44    24    44    1
    45    25    26    1
    46    25    45    1
    47    25    46    1
    48    26    27    1
    49    27    28    1
    50    27    47    1
    51    27    48    1
    52    28    49    1
    53    28    50    1
@<TRIPOS>SUBSTRUCTURE
     1 ZINC000616491533        1 TEMP              0 ****  ****    0 ROOT


##########                                Name:    ZINC000828026236
##########                DOCK_Rotatable_Bonds:                   1
##########                         Heavy_Atoms:                  19
##########                    Molecular_Weight:             383.045
##########                DOCK_Rotatable_Bonds:                   1
##########                       Formal_Charge:                   0
##########                     HBond_Acceptors:                   5
##########                        HBond_Donors:                   0
##########                         Heavy_Atoms:                  19
##########                          Grid_Score:          -24.643909
##########                     Grid_vdw_energy:          -25.235779
##########                      Grid_es_energy:            0.591869
##########           Internal_energy_repulsive:            3.102480

@<TRIPOS>MOLECULE
ZINC000828026236
 28 30 1 0 0
SMALL
USER_CHARGES


@<TRIPOS>ATOM
      1 N1         -6.9833    5.3387   49.9957 N.1     1  ZINC000828026236   -0.3800
      2 C2         -7.3683    4.3810   50.4701 C.1     1  ZINC000828026236    0.2600
      3 C3         -7.8536    3.1738   51.0682 C.ar    1  ZINC000828026236   -0.0500
      4 C4         -9.2076    3.0334   51.3920 C.ar    1  ZINC000828026236    0.0100
      5 C5         -9.6263    1.8461   51.9689 C.ar    1  ZINC000828026236   -0.1600
      6 Br6       -11.4441    1.5986   52.4275 Br      1  ZINC000828026236   -0.0100
      7 C7         -8.7044    0.8420   52.2065 C.ar    1  ZINC000828026236    0.1800
      8 N8         -7.4319    0.9943   51.8935 N.ar    1  ZINC000828026236   -0.5000
      9 C9         -6.9795    2.1057   51.3353 C.ar    1  ZINC000828026236    0.3600
     10 N10        -5.6356    2.2217   51.0238 N.3     1  ZINC000828026236   -0.4900
     11 C11        -5.0453    0.9062   50.7391 C.3     1  ZINC000828026236    0.0500
     12 C12        -3.6884    1.0879   50.0471 C.3     1  ZINC000828026236    0.1100
     13 N13        -2.9015    2.0477   50.8259 N.pl3   1  ZINC000828026236   -0.4400
     14 C14        -1.5632    2.2874   50.7780 C.2     1  ZINC000828026236   -0.0300
     15 Br15       -0.3013    1.4305   49.6603 Br      1  ZINC000828026236    0.0200
     16 C16        -1.3114    3.2566   51.6839 C.2     1  ZINC000828026236    0.0300
     17 N17        -2.4742    3.5953   52.2665 N.2     1  ZINC000828026236   -0.4700
     18 C18        -3.4311    2.8788   51.7591 C.2     1  ZINC000828026236    0.2300
     19 C19        -4.9023    2.9130   52.0984 C.3     1  ZINC000828026236    0.1500
     20 H20        -9.9088    3.8316   51.1974 H       1  ZINC000828026236    0.1600
     21 H21        -9.0325   -0.0833   52.6566 H       1  ZINC000828026236    0.1800
     22 H22        -4.9063    0.3612   51.6728 H       1  ZINC000828026236    0.0700
     23 H23        -5.7126    0.3427   50.0868 H       1  ZINC000828026236    0.1100
     24 H24        -3.1659    0.1322   50.0055 H       1  ZINC000828026236    0.1100
     25 H25        -3.8387    1.4695   49.0372 H       1  ZINC000828026236    0.1000
     26 H26        -0.3443    3.6847   51.9024 H       1  ZINC000828026236    0.1800
     27 H27        -5.2400    3.9470   52.1683 H       1  ZINC000828026236    0.1200
     28 H28        -5.0732    2.4043   53.0470 H       1  ZINC000828026236    0.1000
@<TRIPOS>BOND
     1     1     2    3
     2     2     3    1
     3     3     9   ar
     4     3     4   ar
     5     4     5   ar
     6     4    20    1
     7     5     6    1
     8     5     7   ar
     9     7     8   ar
    10     7    21    1
    11     8     9   ar
    12     9    10    1
    13    10    19    1
    14    10    11    1
    15    11    12    1
    16    11    22    1
    17    11    23    1
    18    12    13    1
    19    12    24    1
    20    12    25    1
    21    13    18    1
    22    13    14    1
    23    14    15    1
    24    14    16    2
    25    16    17    1
    26    16    26    1
    27    17    18    2
    28    18    19    1
    29    19    27    1
    30    19    28    1
@<TRIPOS>SUBSTRUCTURE
     1 ZINC000828026236        1 TEMP              0 ****  ****    0 ROOT


##########                                Name:    ZINC000482962466
##########                DOCK_Rotatable_Bonds:                   2
##########                         Heavy_Atoms:                  25
##########                    Molecular_Weight:             404.303
##########                DOCK_Rotatable_Bonds:                   2
##########                       Formal_Charge:           0.0200002
##########                     HBond_Acceptors:                   4
##########                        HBond_Donors:                   0
##########                         Heavy_Atoms:                  25
##########                          Grid_Score:          -24.603956
##########                     Grid_vdw_energy:          -25.628113
##########                      Grid_es_energy:            1.024156
##########           Internal_energy_repulsive:            8.423196

@<TRIPOS>MOLECULE
ZINC000482962466
 47 50 1 0 0
SMALL
USER_CHARGES


@<TRIPOS>ATOM
      1 C1          3.4226    1.4876   49.1788 C.3     1  ZINC000482962466   -0.1400
      2 C2          1.9914    2.0165   49.2926 C.3     1  ZINC000482962466    0.0700
      3 H3          2.0069    3.1061   49.3175 H       1  ZINC000482962466    0.0700
      4 C4          1.3493    1.4839   50.5786 C.3     1  ZINC000482962466    0.0800
      5 N5         -0.0759    1.8495   50.5728 N.am    1  ZINC000482962466   -0.6100
      6 C6         -0.6408    2.4576   51.6347 C.2     1  ZINC000482962466    0.5600
      7 O7          0.0291    2.7119   52.6167 O.2     1  ZINC000482962466   -0.5200
      8 C8         -2.0742    2.8150   51.6053 C.ar    1  ZINC000482962466   -0.1100
      9 C9         -2.4583    4.1653   51.6862 C.ar    1  ZINC000482962466   -0.0700
     10 C10        -3.7686    4.5189   51.6612 C.ar    1  ZINC000482962466   -0.1000
     11 C11        -4.7628    3.5293   51.5531 C.ar    1  ZINC000482962466   -0.0400
     12 C12        -6.1248    3.8710   51.5251 C.ar    1  ZINC000482962466   -0.0700
     13 C13        -7.0649    2.8907   51.4194 C.ar    1  ZINC000482962466   -0.0800
     14 Br14       -8.8970    3.3574   51.3817 Br      1  ZINC000482962466   -0.0400
     15 C15        -6.6964    1.5480   51.3382 C.ar    1  ZINC000482962466   -0.1000
     16 C16        -5.3870    1.1792   51.3626 C.ar    1  ZINC000482962466   -0.0900
     17 C17        -4.3880    2.1638   51.4703 C.ar    1  ZINC000482962466   -0.0500
     18 C18        -3.0291    1.8178   51.4925 C.ar    1  ZINC000482962466   -0.0700
     19 C19        -0.8665    1.5310   49.3729 C.3     1  ZINC000482962466    0.0700
     20 C20        -0.1160    2.0585   48.1461 C.3     1  ZINC000482962466    0.0800
     21 C21        -0.8149    1.5747   46.8731 C.3     1  ZINC000482962466   -0.1100
     22 C22        -0.1044    2.1730   45.6549 C.3     1  ZINC000482962466   -0.1500
     23 C23        -0.1012    3.6993   45.7748 C.3     1  ZINC000482962466    0.0600
     24 O24         0.5378    4.0795   46.9951 O.3     1  ZINC000482962466   -0.3700
     25 C25        -0.1104    3.5884   48.1704 C.3     1  ZINC000482962466    0.0400
     26 O26         1.2284    1.5753   48.1668 O.3     1  ZINC000482962466   -0.3500
     27 H27         3.8778    1.8652   48.2633 H       1  ZINC000482962466    0.0700
     28 H28         4.0032    1.8227   50.0383 H       1  ZINC000482962466    0.0800
     29 H29         3.4064    0.3980   49.1538 H       1  ZINC000482962466    0.0700
     30 H30         1.4498    0.3991   50.6169 H       1  ZINC000482962466    0.0800
     31 H31         1.8389    1.9290   51.4449 H       1  ZINC000482962466    0.1000
     32 H32        -1.7011    4.9309   51.7698 H       1  ZINC000482962466    0.1400
     33 H33        -4.0481    5.5602   51.7246 H       1  ZINC000482962466    0.1400
     34 H34        -6.4257    4.9064   51.5876 H       1  ZINC000482962466    0.1400
     35 H35        -7.4614    0.7902   51.2549 H       1  ZINC000482962466    0.1400
     36 H36        -5.1160    0.1357   51.2995 H       1  ZINC000482962466    0.1400
     37 H37        -2.7298    0.7822   51.4264 H       1  ZINC000482962466    0.1400
     38 H38        -0.9909    0.4511   49.2911 H       1  ZINC000482962466    0.0900
     39 H39        -1.8437    2.0096   49.4394 H       1  ZINC000482962466    0.1000
     40 H40        -0.7701    0.4867   46.8235 H       1  ZINC000482962466    0.0800
     41 H41        -1.8558    1.8979   46.8834 H       1  ZINC000482962466    0.0800
     42 H42         0.9221    1.8085   45.6165 H       1  ZINC000482962466    0.0800
     43 H43        -0.6302    1.8802   44.7462 H       1  ZINC000482962466    0.0800
     44 H44         0.4402    4.1288   44.9320 H       1  ZINC000482962466    0.1000
     45 H45        -1.1276    4.0661   45.7725 H       1  ZINC000482962466    0.0500
     46 H46        -1.1363    3.9552   48.2001 H       1  ZINC000482962466    0.0600
     47 H47         0.4259    3.9359   49.0534 H       1  ZINC000482962466    0.1000
@<TRIPOS>BOND
     1     1     2    1
     2     1    27    1
     3     1    28    1
     4     1    29    1
     5     2     3    1
     6     2    26    1
     7     2     4    1
     8     4     5    1
     9     4    30    1
    10     4    31    1
    11     5     6   am
    12     5    19    1
    13     6     7    2
    14     6     8    1
    15     8    18   ar
    16     8     9   ar
    17     9    10   ar
    18     9    32    1
    19    10    11   ar
    20    10    33    1
    21    11    17   ar
    22    11    12   ar
    23    12    13   ar
    24    12    34    1
    25    13    14    1
    26    13    15   ar
    27    15    16   ar
    28    15    35    1
    29    16    17   ar
    30    16    36    1
    31    17    18   ar
    32    18    37    1
    33    19    20    1
    34    19    38    1
    35    19    39    1
    36    20    25    1
    37    20    21    1
    38    20    26    1
    39    21    22    1
    40    21    40    1
    41    21    41    1
    42    22    23    1
    43    22    42    1
    44    22    43    1
    45    23    24    1
    46    23    44    1
    47    23    45    1
    48    24    25    1
    49    25    46    1
    50    25    47    1
@<TRIPOS>SUBSTRUCTURE
     1 ZINC000482962466        1 TEMP              0 ****  ****    0 ROOT


##########                                Name:    ZINC001708427409
##########                DOCK_Rotatable_Bonds:                   6
##########                         Heavy_Atoms:                  24
##########                    Molecular_Weight:             334.505
##########                DOCK_Rotatable_Bonds:                   6
##########                       Formal_Charge:          -0.0200006
##########                     HBond_Acceptors:                   5
##########                        HBond_Donors:                   1
##########                         Heavy_Atoms:                  24
##########                          Grid_Score:          -24.370983
##########                     Grid_vdw_energy:          -24.923471
##########                      Grid_es_energy:            0.552488
##########           Internal_energy_repulsive:           19.618317

@<TRIPOS>MOLECULE
ZINC001708427409
 58 60 1 0 0
SMALL
USER_CHARGES


@<TRIPOS>ATOM
      1 C1         -7.2286    3.5435   64.3358 C.3     1  ZINC001708427409   -0.1500
      2 C2         -7.3531    2.2048   65.0659 C.3     1  ZINC001708427409   -0.1200
      3 C3         -8.7613    1.6422   64.8630 C.3     1  ZINC001708427409    0.0000
      4 H4         -9.4787    2.4621   64.8290 H       1  ZINC001708427409    0.0800
      5 C5         -9.1094    0.7078   66.0234 C.3     1  ZINC001708427409   -0.1400
      6 C6         -8.8138    0.8749   63.5671 C.2     1  ZINC001708427409    0.1800
      7 N7         -8.2128   -0.2529   63.3125 N.2     1  ZINC001708427409   -0.2800
      8 N8         -8.4714   -0.6286   62.1109 N.2     1  ZINC001708427409   -0.3200
      9 C9         -9.2577    0.2464   61.5296 C.2     1  ZINC001708427409    0.3600
     10 N10        -9.7485    0.1808   60.2352 N.3     1  ZINC001708427409   -0.4200
     11 C11       -10.3648   -1.1478   59.9648 C.3     1  ZINC001708427409    0.0400
     12 C12       -10.3387   -1.2884   58.4270 C.3     1  ZINC001708427409   -0.0900
     13 H13       -11.3028   -1.0060   58.0045 H       1  ZINC001708427409    0.0900
     14 C14        -9.9852   -2.7232   58.0304 C.3     1  ZINC001708427409   -0.1500
     15 C15        -9.2334   -0.3074   57.9521 C.3     1  ZINC001708427409   -0.0800
     16 H16        -8.4711   -0.8260   57.3709 H       1  ZINC001708427409    0.0900
     17 C17        -9.9199    0.7727   57.1155 C.3     1  ZINC001708427409   -0.1100
     18 C18        -8.9550    1.9344   56.8793 C.3     1  ZINC001708427409   -0.1200
     19 C19        -8.6545    2.5947   58.2230 C.3     1  ZINC001708427409   -0.1100
     20 C20        -8.0112    1.6056   59.1736 C.3     1  ZINC001708427409   -0.1000
     21 C21        -8.6500    0.2505   59.2476 C.3     1  ZINC001708427409    0.1000
     22 H22        -7.8841   -0.4469   59.5872 H       1  ZINC001708427409    0.0600
     23 N23        -9.5055    1.2300   62.4423 N.pl3   1  ZINC001708427409   -0.4700
     24 C24       -10.3331    2.4240   62.2530 C.3     1  ZINC001708427409    0.0800
     25 C25       -11.8087    2.0521   62.4116 C.3     1  ZINC001708427409    0.1200
     26 C26       -11.9667    1.0807   63.5831 C.3     1  ZINC001708427409   -0.1800
     27 C27       -12.6269    3.3160   62.6832 C.3     1  ZINC001708427409   -0.1500
     28 O28       -12.2751    1.4314   61.2118 O.3     1  ZINC001708427409   -0.5400
     29 H29        -7.9611    4.2449   64.7353 H       1  ZINC001708427409    0.0600
     30 H30        -6.2253    3.9444   64.4805 H       1  ZINC001708427409    0.0600
     31 H31        -7.4106    3.3951   63.2714 H       1  ZINC001708427409    0.0500
     32 H32        -6.6206    1.5035   64.6664 H       1  ZINC001708427409    0.0700
     33 H33        -7.1711    2.3532   66.1303 H       1  ZINC001708427409    0.0800
     34 H34        -9.0715    1.2628   66.9607 H       1  ZINC001708427409    0.0700
     35 H35       -10.1127    0.3070   65.8788 H       1  ZINC001708427409    0.0500
     36 H36        -8.3920   -0.1122   66.0574 H       1  ZINC001708427409    0.0700
     37 H37        -9.7772   -1.9402   60.4284 H       1  ZINC001708427409    0.0600
     38 H38       -11.3913   -1.1716   60.3307 H       1  ZINC001708427409    0.0800
     39 H39       -10.7442   -3.4041   58.4154 H       1  ZINC001708427409    0.0600
     40 H40        -9.9453   -2.8005   56.9439 H       1  ZINC001708427409    0.0600
     41 H41        -9.0142   -2.9872   58.4493 H       1  ZINC001708427409    0.0600
     42 H42       -10.2215    0.3514   56.1565 H       1  ZINC001708427409    0.0600
     43 H43       -10.8013    1.1354   57.6443 H       1  ZINC001708427409    0.0700
     44 H44        -8.0305    1.5592   56.4407 H       1  ZINC001708427409    0.0600
     45 H45        -9.4138    2.6609   56.2086 H       1  ZINC001708427409    0.0600
     46 H46        -7.9779    3.4348   58.0669 H       1  ZINC001708427409    0.0600
     47 H47        -9.5842    2.9596   58.6598 H       1  ZINC001708427409    0.0600
     48 H48        -6.9736    1.4661   58.8700 H       1  ZINC001708427409    0.0600
     49 H49        -8.0137    2.0414   60.1726 H       1  ZINC001708427409    0.0700
     50 H50       -10.0652    3.1735   62.9977 H       1  ZINC001708427409    0.0900
     51 H51       -10.1654    2.8278   61.2545 H       1  ZINC001708427409    0.1000
     52 H52       -11.6110    1.5541   64.4982 H       1  ZINC001708427409    0.0700
     53 H53       -13.0180    0.8156   63.6960 H       1  ZINC001708427409    0.0700
     54 H54       -11.3838    0.1802   63.3896 H       1  ZINC001708427409    0.0600
     55 H55       -12.4495    4.0414   61.8892 H       1  ZINC001708427409    0.0700
     56 H56       -13.6867    3.0632   62.7142 H       1  ZINC001708427409    0.0700
     57 H57       -12.3274    3.7441   63.6399 H       1  ZINC001708427409    0.0700
     58 H58       -12.1667    1.9756   60.4198 H       1  ZINC001708427409    0.3800
@<TRIPOS>BOND
     1     1     2    1
     2     1    29    1
     3     1    30    1
     4     1    31    1
     5     2     3    1
     6     2    32    1
     7     2    33    1
     8     3     4    1
     9     3     5    1
    10     3     6    1
    11     5    34    1
    12     5    35    1
    13     5    36    1
    14     6    23    1
    15     6     7    2
    16     7     8    1
    17     8     9    2
    18     9    10    1
    19     9    23    1
    20    10    21    1
    21    10    11    1
    22    11    12    1
    23    11    37    1
    24    11    38    1
    25    12    13    1
    26    12    14    1
    27    12    15    1
    28    14    39    1
    29    14    40    1
    30    14    41    1
    31    15    16    1
    32    15    21    1
    33    15    17    1
    34    17    18    1
    35    17    42    1
    36    17    43    1
    37    18    19    1
    38    18    44    1
    39    18    45    1
    40    19    20    1
    41    19    46    1
    42    19    47    1
    43    20    21    1
    44    20    48    1
    45    20    49    1
    46    21    22    1
    47    23    24    1
    48    24    25    1
    49    24    50    1
    50    24    51    1
    51    25    26    1
    52    25    27    1
    53    25    28    1
    54    26    52    1
    55    26    53    1
    56    26    54    1
    57    27    55    1
    58    27    56    1
    59    27    57    1
    60    28    58    1
@<TRIPOS>SUBSTRUCTURE
     1 ZINC001708427409        1 TEMP              0 ****  ****    0 ROOT


##########                                Name:    ZINC000864477301
##########                DOCK_Rotatable_Bonds:                   6
##########                         Heavy_Atoms:                  26
##########                    Molecular_Weight:             393.891
##########                DOCK_Rotatable_Bonds:                   6
##########                       Formal_Charge:         -0.00999978
##########                     HBond_Acceptors:                   7
##########                        HBond_Donors:                   1
##########                         Heavy_Atoms:                  26
##########                          Grid_Score:          -24.231312
##########                     Grid_vdw_energy:          -22.917923
##########                      Grid_es_energy:           -1.313388
##########           Internal_energy_repulsive:            9.228687

@<TRIPOS>MOLECULE
ZINC000864477301
 46 47 1 0 0
SMALL
USER_CHARGES


@<TRIPOS>ATOM
      1 C1          0.8082    3.8462   55.5437 C.3     1  ZINC000864477301   -0.1500
      2 C2          0.6790    5.3466   55.2737 C.3     1  ZINC000864477301    0.0600
      3 O3         -0.2469    5.5631   54.1765 O.3     1  ZINC000864477301   -0.3500
      4 C4          0.1496    5.1616   52.9533 C.2     1  ZINC000864477301    0.5100
      5 O5          1.1703    5.6078   52.4688 O.2     1  ZINC000864477301   -0.5000
      6 C6         -0.6568    4.1789   52.2009 C.ar    1  ZINC000864477301   -0.1400
      7 C7         -1.9398    3.8436   52.6374 C.ar    1  ZINC000864477301   -0.0300
      8 C8         -2.6875    2.9249   51.9299 C.ar    1  ZINC000864477301   -0.1500
      9 C9         -2.1685    2.3362   50.7907 C.ar    1  ZINC000864477301   -0.0100
     10 C10        -0.8974    2.6640   50.3524 C.ar    1  ZINC000864477301   -0.4900
     11 S11        -0.2462    1.9080   48.9001 S.o     1  ZINC000864477301    1.3800
     12 O12         1.1585    2.0163   49.0859 O.2     1  ZINC000864477301   -0.8100
     13 C13        -0.7706    3.0381   47.5816 C.3     1  ZINC000864477301   -0.4600
     14 H14        -1.8582    3.0335   47.5105 H       1  ZINC000864477301    0.1400
     15 C15        -0.2863    4.4538   47.9008 C.3     1  ZINC000864477301   -0.1400
     16 C16        -0.1796    2.5886   46.2702 C.2     1  ZINC000864477301    0.5500
     17 O17        -0.2522    3.3059   45.2948 O.2     1  ZINC000864477301   -0.5100
     18 N18         0.4294    1.3897   46.1812 N.am    1  ZINC000864477301   -0.6800
     19 C19         0.9784    0.9723   44.9631 C.ar    1  ZINC000864477301    0.1400
     20 C20         2.3226    1.1911   44.6945 C.ar    1  ZINC000864477301   -0.0600
     21 C21         3.1932    1.8787   45.7144 C.3     1  ZINC000864477301   -0.1100
     22 C22         2.8618    0.7775   43.4916 C.ar    1  ZINC000864477301   -0.1100
     23 C23         2.0644    0.1462   42.5551 C.ar    1  ZINC000864477301   -0.1000
     24 C24         0.7245   -0.0733   42.8186 C.ar    1  ZINC000864477301   -0.1100
     25 C25         0.1801    0.3325   44.0220 C.ar    1  ZINC000864477301   -0.0200
     26 Cl26       -1.5015    0.0563   44.3526 Cl      1  ZINC000864477301   -0.0600
     27 C27        -0.1415    3.5854   51.0466 C.ar    1  ZINC000864477301    0.0100
     28 H28        -0.1681    3.4389   55.8064 H       1  ZINC000864477301    0.0700
     29 H29         1.1814    3.3469   54.6494 H       1  ZINC000864477301    0.0700
     30 H30         1.5033    3.6837   56.3674 H       1  ZINC000864477301    0.0800
     31 H31         0.3059    5.8458   56.1679 H       1  ZINC000864477301    0.0700
     32 H32         1.6554    5.7539   55.0110 H       1  ZINC000864477301    0.0700
     33 H33        -2.3460    4.3020   53.5269 H       1  ZINC000864477301    0.1400
     34 H34        -3.6802    2.6645   52.2665 H       1  ZINC000864477301    0.1400
     35 H35        -2.7577    1.6171   50.2411 H       1  ZINC000864477301    0.1500
     36 H36        -0.6014    5.1329   47.1084 H       1  ZINC000864477301    0.0700
     37 H37        -0.7138    4.7790   48.8493 H       1  ZINC000864477301    0.0700
     38 H38         0.8014    4.4584   47.9719 H       1  ZINC000864477301    0.0700
     39 H39         0.4874    0.8160   46.9612 H       1  ZINC000864477301    0.4100
     40 H40         3.6345    1.1339   46.3768 H       1  ZINC000864477301    0.0800
     41 H41         3.9856    2.4271   45.2052 H       1  ZINC000864477301    0.0700
     42 H42         2.5892    2.5725   46.2992 H       1  ZINC000864477301    0.0700
     43 H43         3.9075    0.9480   43.2823 H       1  ZINC000864477301    0.1400
     44 H44         2.4886   -0.1759   41.6157 H       1  ZINC000864477301    0.1400
     45 H45         0.1041   -0.5666   42.0848 H       1  ZINC000864477301    0.1400
     46 H46         0.8502    3.8407   50.7033 H       1  ZINC000864477301    0.1400
@<TRIPOS>BOND
     1     1     2    1
     2     1    28    1
     3     1    29    1
     4     1    30    1
     5     2     3    1
     6     2    31    1
     7     2    32    1
     8     3     4    1
     9     4     5    2
    10     4     6    1
    11     6    27   ar
    12     6     7   ar
    13     7     8   ar
    14     7    33    1
    15     8     9   ar
    16     8    34    1
    17     9    10   ar
    18     9    35    1
    19    10    11    1
    20    10    27   ar
    21    11    12    2
    22    11    13    1
    23    13    14    1
    24    13    15    1
    25    13    16    1
    26    15    36    1
    27    15    37    1
    28    15    38    1
    29    16    17    2
    30    16    18   am
    31    18    19    1
    32    18    39    1
    33    19    25   ar
    34    19    20   ar
    35    20    21    1
    36    20    22   ar
    37    21    40    1
    38    21    41    1
    39    21    42    1
    40    22    23   ar
    41    22    43    1
    42    23    24   ar
    43    23    44    1
    44    24    25   ar
    45    24    45    1
    46    25    26    1
    47    27    46    1
@<TRIPOS>SUBSTRUCTURE
     1 ZINC000864477301        1 TEMP              0 ****  ****    0 ROOT


##########                                Name:    ZINC000154446008
##########                DOCK_Rotatable_Bonds:                   5
##########                         Heavy_Atoms:                  24
##########                    Molecular_Weight:              349.41
##########                DOCK_Rotatable_Bonds:                   5
##########                       Formal_Charge:          -0.0199999
##########                     HBond_Acceptors:                   8
##########                        HBond_Donors:                   0
##########                         Heavy_Atoms:                  24
##########                          Grid_Score:          -24.205378
##########                     Grid_vdw_energy:          -23.829288
##########                      Grid_es_energy:           -0.376089
##########           Internal_energy_repulsive:           13.160398

@<TRIPOS>MOLECULE
ZINC000154446008
 43 45 1 0 0
SMALL
USER_CHARGES


@<TRIPOS>ATOM
      1 O1         -8.4599   -1.5095   59.3529 O.2     1  ZINC000154446008   -0.5000
      2 C2         -8.5271   -0.4274   59.9057 C.2     1  ZINC000154446008    0.5900
      3 C3         -8.9165   -0.3480   61.3167 C.2     1  ZINC000154446008   -0.2300
      4 C4        -10.1963   -0.4163   61.7909 C.2     1  ZINC000154446008   -0.0600
      5 C5        -10.2750   -0.3152   63.1596 C.2     1  ZINC000154446008   -0.0500
      6 C6         -9.1018   -0.1691   63.7864 C.2     1  ZINC000154446008   -0.2100
      7 N7         -8.9443   -0.0408   65.2527 N.pl3   1  ZINC000154446008    0.0500
      8 O8         -7.8423    0.1584   65.7317 O.2     1  ZINC000154446008   -0.1300
      9 O9         -9.9167   -0.1346   65.9802 O.2     1  ZINC000154446008   -0.1500
     10 S10        -7.8110   -0.1575   62.6706 S.3     1  ZINC000154446008    0.3500
     11 N11        -8.2381    0.6977   59.2221 N.am    1  ZINC000154446008   -0.6100
     12 C12        -7.8522    0.6336   57.8054 C.3     1  ZINC000154446008    0.0800
     13 C13        -8.7925    1.5389   57.0000 C.3     1  ZINC000154446008    0.0900
     14 N14        -8.8581    2.8515   57.6577 N.am    1  ZINC000154446008   -0.6100
     15 C15        -8.5699    3.9766   56.9737 C.2     1  ZINC000154446008    0.5500
     16 O16        -8.6276    5.0572   57.5288 O.2     1  ZINC000154446008   -0.5300
     17 C17        -8.1856    3.8974   55.5560 C.2     1  ZINC000154446008   -0.1500
     18 C18        -9.1437    3.8590   54.6555 C.2     1  ZINC000154446008   -0.1100
     19 C19        -8.8973    3.7688   53.1776 C.3     1  ZINC000154446008   -0.1000
     20 C20        -7.4509    4.1541   52.8604 C.3     1  ZINC000154446008   -0.1200
     21 C21        -6.5215    3.3635   53.7896 C.3     1  ZINC000154446008   -0.1200
     22 C22        -6.7230    3.8714   55.2203 C.3     1  ZINC000154446008   -0.0700
     23 C23        -9.2439    2.9155   59.0743 C.3     1  ZINC000154446008    0.1000
     24 C24        -8.3091    2.0108   59.8782 C.3     1  ZINC000154446008    0.1000
     25 H25       -11.0598   -0.5376   61.1538 H       1  ZINC000154446008    0.1800
     26 H26       -11.2150   -0.3506   63.6901 H       1  ZINC000154446008    0.1800
     27 H27        -6.8247    0.9787   57.6902 H       1  ZINC000154446008    0.0900
     28 H28        -7.9382   -0.3928   57.4489 H       1  ZINC000154446008    0.0900
     29 H29        -8.4084    1.6562   55.9867 H       1  ZINC000154446008    0.1100
     30 H30        -9.7879    1.0958   56.9675 H       1  ZINC000154446008    0.0800
     31 H31       -10.1669    3.8939   54.9993 H       1  ZINC000154446008    0.1100
     32 H32        -9.0811    2.7481   52.8423 H       1  ZINC000154446008    0.0900
     33 H33        -9.5742    4.4458   52.6564 H       1  ZINC000154446008    0.0800
     34 H34        -7.2258    3.9092   51.8225 H       1  ZINC000154446008    0.0700
     35 H35        -7.3118    5.2225   53.0259 H       1  ZINC000154446008    0.0700
     36 H36        -6.7663    2.3027   53.7363 H       1  ZINC000154446008    0.0700
     37 H37        -5.4852    3.5186   53.4894 H       1  ZINC000154446008    0.0700
     38 H38        -6.3083    4.8755   55.3090 H       1  ZINC000154446008    0.0800
     39 H39        -6.2086    3.2076   55.9152 H       1  ZINC000154446008    0.0700
     40 H40        -9.1580    3.9419   59.4309 H       1  ZINC000154446008    0.1100
     41 H41       -10.2715    2.5705   59.1895 H       1  ZINC000154446008    0.0800
     42 H42        -8.6944    1.8944   60.8911 H       1  ZINC000154446008    0.1100
     43 H43        -7.3128    2.4515   59.9115 H       1  ZINC000154446008    0.0800
@<TRIPOS>BOND
     1     1     2    2
     2     2     3    1
     3     2    11   am
     4     3    10    1
     5     3     4    2
     6     4     5    1
     7     4    25    1
     8     5     6    2
     9     5    26    1
    10     6     7    1
    11     6    10    1
    12     7     8    2
    13     7     9    2
    14    11    24    1
    15    11    12    1
    16    12    13    1
    17    12    27    1
    18    12    28    1
    19    13    14    1
    20    13    29    1
    21    13    30    1
    22    14    15   am
    23    14    23    1
    24    15    16    2
    25    15    17    1
    26    17    22    1
    27    17    18    2
    28    18    19    1
    29    18    31    1
    30    19    20    1
    31    19    32    1
    32    19    33    1
    33    20    21    1
    34    20    34    1
    35    20    35    1
    36    21    22    1
    37    21    36    1
    38    21    37    1
    39    22    38    1
    40    22    39    1
    41    23    24    1
    42    23    40    1
    43    23    41    1
    44    24    42    1
    45    24    43    1
@<TRIPOS>SUBSTRUCTURE
     1 ZINC000154446008        1 TEMP              0 ****  ****    0 ROOT


##########                                Name:    ZINC000820901229
##########                DOCK_Rotatable_Bonds:                   3
##########                         Heavy_Atoms:                  18
##########                    Molecular_Weight:             331.233
##########                DOCK_Rotatable_Bonds:                   3
##########                       Formal_Charge:           0.0099999
##########                     HBond_Acceptors:                   5
##########                        HBond_Donors:                   1
##########                         Heavy_Atoms:                  18
##########                          Grid_Score:          -24.047804
##########                     Grid_vdw_energy:          -23.197060
##########                      Grid_es_energy:           -0.850744
##########           Internal_energy_repulsive:            4.025576

@<TRIPOS>MOLECULE
ZINC000820901229
 33 35 1 0 0
SMALL
USER_CHARGES


@<TRIPOS>ATOM
      1 O1         -2.9687    0.2738   50.3028 O.2     1  ZINC000820901229   -0.5300
      2 C2         -3.2882    1.4178   50.5647 C.2     1  ZINC000820901229    0.6000
      3 N3         -2.3406    2.3640   50.7172 N.am    1  ZINC000820901229   -0.7100
      4 C4         -0.9254    2.0133   50.5735 C.3     1  ZINC000820901229    0.1600
      5 H5         -0.8034    0.9320   50.6358 H       1  ZINC000820901229    0.1000
      6 C6         -0.1026    2.6971   51.6773 C.3     1  ZINC000820901229   -0.1300
      7 C7          1.3875    2.4074   51.5241 C.3     1  ZINC000820901229   -0.1100
      8 C8          1.8929    2.7926   50.1239 C.3     1  ZINC000820901229   -0.1100
      9 C9          1.0662    2.0198   49.1170 C.3     1  ZINC000820901229    0.0800
     10 H10         1.1122    0.9547   49.3445 H       1  ZINC000820901229    0.0700
     11 O11         1.3444    2.2275   47.7370 O.3     1  ZINC000820901229   -0.3700
     12 C12         0.1740    1.7376   47.0342 C.3     1  ZINC000820901229    0.0500
     13 C13        -1.0293    1.8741   48.0029 C.3     1  ZINC000820901229   -0.1500
     14 C14        -0.4012    2.5165   49.2401 C.3     1  ZINC000820901229   -0.1400
     15 H15        -0.4566    3.6036   49.1831 H       1  ZINC000820901229    0.0900
     16 C16        -4.7106    1.7704   50.7091 C.2     1  ZINC000820901229    0.0100
     17 C17        -5.7117    0.8719   50.5763 C.2     1  ZINC000820901229   -0.2200
     18 S18        -7.2047    1.6691   50.8153 S.3     1  ZINC000820901229    0.3100
     19 C19        -6.4075    3.1561   51.0788 C.2     1  ZINC000820901229   -0.0100
     20 Br20       -7.2769    4.7920   51.4582 Br      1  ZINC000820901229    0.0700
     21 N21        -5.1318    3.0071   50.9894 N.2     1  ZINC000820901229   -0.4100
     22 H22        -2.5956    3.2772   50.9220 H       1  ZINC000820901229    0.4100
     23 H23        -0.2633    3.7739   51.6261 H       1  ZINC000820901229    0.0700
     24 H24        -0.4381    2.3338   52.6486 H       1  ZINC000820901229    0.0700
     25 H25         1.9401    2.9767   52.2716 H       1  ZINC000820901229    0.0800
     26 H26         1.5626    1.3439   51.6863 H       1  ZINC000820901229    0.0700
     27 H27         1.7646    3.8633   49.9650 H       1  ZINC000820901229    0.0700
     28 H28         2.9448    2.5253   50.0229 H       1  ZINC000820901229    0.0800
     29 H29         0.0004    2.3360   46.1399 H       1  ZINC000820901229    0.0900
     30 H30         0.3150    0.6915   46.7625 H       1  ZINC000820901229    0.0600
     31 H31        -1.7930    2.5262   47.5790 H       1  ZINC000820901229    0.0800
     32 H32        -1.4457    0.8951   48.2403 H       1  ZINC000820901229    0.0800
     33 H33        -5.5884   -0.1779   50.3547 H       1  ZINC000820901229    0.2000
@<TRIPOS>BOND
     1     1     2    2
     2     2     3   am
     3     2    16    1
     4     3     4    1
     5     3    22    1
     6     4     5    1
     7     4    14    1
     8     4     6    1
     9     6     7    1
    10     6    23    1
    11     6    24    1
    12     7     8    1
    13     7    25    1
    14     7    26    1
    15     8     9    1
    16     8    27    1
    17     8    28    1
    18     9    10    1
    19     9    14    1
    20     9    11    1
    21    11    12    1
    22    12    13    1
    23    12    29    1
    24    12    30    1
    25    13    14    1
    26    13    31    1
    27    13    32    1
    28    14    15    1
    29    16    21    1
    30    16    17    2
    31    17    18    1
    32    17    33    1
    33    18    19    1
    34    19    20    1
    35    19    21    2
@<TRIPOS>SUBSTRUCTURE
     1 ZINC000820901229        1 TEMP              0 ****  ****    0 ROOT


##########                                Name:    ZINC001010141213
##########                DOCK_Rotatable_Bonds:                   4
##########                         Heavy_Atoms:                  24
##########                    Molecular_Weight:             330.346
##########                DOCK_Rotatable_Bonds:                   4
##########                       Formal_Charge:          -0.0100003
##########                     HBond_Acceptors:                   9
##########                        HBond_Donors:                   1
##########                         Heavy_Atoms:                  24
##########                          Grid_Score:          -23.938354
##########                     Grid_vdw_energy:          -21.949659
##########                      Grid_es_energy:           -1.988695
##########           Internal_energy_repulsive:           17.169033

@<TRIPOS>MOLECULE
ZINC001010141213
 42 44 1 0 0
SMALL
USER_CHARGES


@<TRIPOS>ATOM
      1 C1         -8.8309    5.2649   51.0837 C.3     1  ZINC001010141213   -0.0800
      2 C2         -8.5382    4.8931   52.5145 C.2     1  ZINC001010141213   -0.1500
      3 C3         -8.1274    3.6615   52.9941 C.2     1  ZINC001010141213   -0.0400
      4 C4         -7.8870    2.4421   52.2060 C.2     1  ZINC001010141213    0.6000
      5 O5         -8.7099    1.5466   52.2048 O.2     1  ZINC001010141213   -0.5100
      6 N6         -6.7548    2.3179   51.4854 N.am    1  ZINC001010141213   -0.6100
      7 C7         -5.7489    3.3892   51.4822 C.3     1  ZINC001010141213    0.0900
      8 C8         -4.3993    2.7955   51.9049 C.3     1  ZINC001010141213    0.0700
      9 N9         -4.1483    1.5860   51.1087 N.am    1  ZINC001010141213   -0.6000
     10 C10        -3.0158    1.4614   50.3890 C.2     1  ZINC001010141213    0.5900
     11 O11        -2.8193    0.4562   49.7343 O.2     1  ZINC001010141213   -0.5200
     12 C12        -2.0120    2.5474   50.3957 C.2     1  ZINC001010141213    0.0300
     13 N13        -1.7199    3.1762   49.2795 N.2     1  ZINC001010141213   -0.1800
     14 N14        -0.8563    4.1251   49.2331 N.am    1  ZINC001010141213   -0.4400
     15 C15        -0.1942    4.5358   50.3307 C.2     1  ZINC001010141213    0.4800
     16 O16         0.6203    5.4406   50.2539 O.2     1  ZINC001010141213   -0.5100
     17 C17        -0.4491    3.9120   51.5723 C.2     1  ZINC001010141213   -0.1800
     18 C18        -1.3730    2.9101   51.6059 C.2     1  ZINC001010141213   -0.0400
     19 C19        -5.1543    0.5146   51.1118 C.3     1  ZINC001010141213    0.1000
     20 C20        -6.5013    1.1059   50.6937 C.3     1  ZINC001010141213    0.1000
     21 N21        -7.9900    3.8046   54.3456 N.pl3   1  ZINC001010141213   -0.2700
     22 C22        -7.5695    2.7471   55.2681 C.3     1  ZINC001010141213    0.0900
     23 N23        -8.2850    5.0080   54.6840 N.2     1  ZINC001010141213   -0.2800
     24 C24        -8.6177    5.7196   53.6375 C.2     1  ZINC001010141213    0.0100
     25 H25        -7.9191    5.6267   50.6084 H       1  ZINC001010141213    0.0700
     26 H26        -9.1967    4.3889   50.5481 H       1  ZINC001010141213    0.0600
     27 H27        -9.5886    6.0480   51.0596 H       1  ZINC001010141213    0.0700
     28 H28        -5.6656    3.8099   50.4801 H       1  ZINC001010141213    0.0800
     29 H29        -6.0421    4.1684   52.1857 H       1  ZINC001010141213    0.1000
     30 H30        -3.6074    3.5227   51.7251 H       1  ZINC001010141213    0.1400
     31 H31        -4.4286    2.5372   52.9634 H       1  ZINC001010141213    0.0800
     32 H32        -0.6760    4.5577   48.3838 H       1  ZINC001010141213    0.4500
     33 H33         0.0685    4.2224   52.4680 H       1  ZINC001010141213    0.1700
     34 H34        -1.6051    2.4009   52.5296 H       1  ZINC001010141213    0.1700
     35 H35        -4.8611   -0.2646   50.4084 H       1  ZINC001010141213    0.1100
     36 H36        -5.2375    0.0939   52.1140 H       1  ZINC001010141213    0.0800
     37 H37        -7.2922    0.3778   50.8740 H       1  ZINC001010141213    0.1100
     38 H38        -6.4740    1.3657   49.6355 H       1  ZINC001010141213    0.0800
     39 H39        -6.4948    2.8171   55.4358 H       1  ZINC001010141213    0.0900
     40 H40        -8.0936    2.8631   56.2169 H       1  ZINC001010141213    0.1000
     41 H41        -7.8075    1.7741   54.8382 H       1  ZINC001010141213    0.0900
     42 H42        -8.9089    6.7596   53.6422 H       1  ZINC001010141213    0.1900
@<TRIPOS>BOND
     1     1     2    1
     2     1    25    1
     3     1    26    1
     4     1    27    1
     5     2    24    1
     6     2     3    2
     7     3     4    1
     8     3    21    1
     9     4     5    2
    10     4     6   am
    11     6    20    1
    12     6     7    1
    13     7     8    1
    14     7    28    1
    15     7    29    1
    16     8     9    1
    17     8    30    1
    18     8    31    1
    19     9    10   am
    20     9    19    1
    21    10    11    2
    22    10    12    1
    23    12    18    1
    24    12    13    2
    25    13    14    1
    26    14    15   am
    27    14    32    1
    28    15    16    2
    29    15    17    1
    30    17    18    2
    31    17    33    1
    32    18    34    1
    33    19    20    1
    34    19    35    1
    35    19    36    1
    36    20    37    1
    37    20    38    1
    38    21    22    1
    39    21    23    1
    40    22    39    1
    41    22    40    1
    42    22    41    1
    43    23    24    2
    44    24    42    1
@<TRIPOS>SUBSTRUCTURE
     1 ZINC001010141213        1 TEMP              0 ****  ****    0 ROOT


##########                                Name:    ZINC000656860804
##########                DOCK_Rotatable_Bonds:                   2
##########                         Heavy_Atoms:                  19
##########                    Molecular_Weight:             388.068
##########                DOCK_Rotatable_Bonds:                   2
##########                       Formal_Charge:          8.9407e-08
##########                     HBond_Acceptors:                   8
##########                        HBond_Donors:                   1
##########                         Heavy_Atoms:                  19
##########                          Grid_Score:          -23.216076
##########                     Grid_vdw_energy:          -23.256029
##########                      Grid_es_energy:            0.039952
##########           Internal_energy_repulsive:           13.861812

@<TRIPOS>MOLECULE
ZINC000656860804
 28 29 1 0 0
SMALL
USER_CHARGES


@<TRIPOS>ATOM
      1 O1         -6.1299   -0.3480   50.6441 O.2     1  ZINC000656860804   -0.5400
      2 C2         -6.3084    0.8454   50.7668 C.2     1  ZINC000656860804    0.5100
      3 C3         -6.1317    1.4611   52.1279 C.3     1  ZINC000656860804    0.1100
      4 N4         -6.0933    2.9243   51.9872 N.am    1  ZINC000656860804   -1.0000
      5 S5         -4.9979    3.8420   52.8240 S.o2    1  ZINC000656860804    2.6900
      6 O6         -5.1371    5.1716   52.3424 O.2     1  ZINC000656860804   -0.9200
      7 O7         -5.1442    3.4921   54.1935 O.2     1  ZINC000656860804   -0.9300
      8 C8         -3.3907    3.3040   52.3422 C.ar    1  ZINC000656860804   -0.6500
      9 C9         -3.2430    2.4405   51.2734 C.ar    1  ZINC000656860804    0.0100
     10 C10        -1.9812    2.0178   50.8946 C.ar    1  ZINC000656860804   -0.0400
     11 Cl11       -1.7957    0.9333   49.5518 Cl      1  ZINC000656860804   -0.0200
     12 C12        -0.8666    2.4602   51.5866 C.ar    1  ZINC000656860804    0.0200
     13 Cl13        0.7170    1.9308   51.1115 Cl      1  ZINC000656860804   -0.0100
     14 C14        -1.0153    3.3247   52.6562 C.ar    1  ZINC000656860804   -0.0900
     15 C15        -2.2766    3.7510   53.0302 C.ar    1  ZINC000656860804    0.0100
     16 Br16       -2.4801    4.9326   54.4925 Br      1  ZINC000656860804    0.0100
     17 C17        -7.0683    3.5406   51.0715 C.3     1  ZINC000656860804    0.0900
     18 C18        -6.8100    2.9992   49.6641 C.3     1  ZINC000656860804    0.0800
     19 N19        -6.6469    1.5523   49.6876 N.am    1  ZINC000656860804   -0.7100
     20 H20        -6.9672    1.1777   52.7681 H       1  ZINC000656860804    0.1200
     21 H21        -5.1977    1.1121   52.5681 H       1  ZINC000656860804    0.1200
     22 H22        -4.1126    2.0952   50.7341 H       1  ZINC000656860804    0.1700
     23 H23        -0.1463    3.6698   53.1965 H       1  ZINC000656860804    0.1700
     24 H24        -8.0803    3.2834   51.3845 H       1  ZINC000656860804    0.1000
     25 H25        -6.9449    4.6235   51.0774 H       1  ZINC000656860804    0.1200
     26 H26        -7.6509    3.2574   49.0205 H       1  ZINC000656860804    0.1000
     27 H27        -5.9021    3.4527   49.2664 H       1  ZINC000656860804    0.0800
     28 H28        -6.8013    1.0676   48.8616 H       1  ZINC000656860804    0.4000
@<TRIPOS>BOND
     1     1     2    2
     2     2    19   am
     3     2     3    1
     4     3     4    1
     5     3    20    1
     6     3    21    1
     7     4     5   am
     8     4    17    1
     9     5     6    2
    10     5     7    2
    11     5     8    1
    12     8    15   ar
    13     8     9   ar
    14     9    10   ar
    15     9    22    1
    16    10    11    1
    17    10    12   ar
    18    12    13    1
    19    12    14   ar
    20    14    15   ar
    21    14    23    1
    22    15    16    1
    23    17    18    1
    24    17    24    1
    25    17    25    1
    26    18    19    1
    27    18    26    1
    28    18    27    1
    29    19    28    1
@<TRIPOS>SUBSTRUCTURE
     1 ZINC000656860804        1 TEMP              0 ****  ****    0 ROOT


##########                                Name:    ZINC000431691749
##########                DOCK_Rotatable_Bonds:                   4
##########                         Heavy_Atoms:                  24
##########                    Molecular_Weight:             328.454
##########                DOCK_Rotatable_Bonds:                   4
##########                       Formal_Charge:         -0.00999957
##########                     HBond_Acceptors:                   4
##########                        HBond_Donors:                   0
##########                         Heavy_Atoms:                  24
##########                          Grid_Score:          -21.569517
##########                     Grid_vdw_energy:          -22.106705
##########                      Grid_es_energy:            0.537187
##########           Internal_energy_repulsive:          120.472153

@<TRIPOS>MOLECULE
ZINC000431691749
 52 54 1 0 0
SMALL
USER_CHARGES


@<TRIPOS>ATOM
      1 C1         -2.8154    2.6929   51.3679 C.3     1  ZINC000431691749   -0.1200
      2 C2         -4.1899    2.0764   51.3255 C.ar    1  ZINC000431691749   -0.0800
      3 C3         -4.3533    0.7826   50.8679 C.ar    1  ZINC000431691749   -0.1200
      4 C4         -5.6142    0.2170   50.8290 C.ar    1  ZINC000431691749   -0.1100
      5 C5         -6.7115    0.9454   51.2484 C.ar    1  ZINC000431691749   -0.1100
      6 C6         -6.5481    2.2394   51.7070 C.ar    1  ZINC000431691749   -0.0800
      7 C7         -7.7445    3.0337   52.1639 C.3     1  ZINC000431691749    0.2000
      8 H8         -8.6566    2.5511   51.8127 H       1  ZINC000431691749    0.1100
      9 N9         -7.7582    3.0976   53.6274 N.am    1  ZINC000431691749   -0.5700
     10 C10        -6.6794    2.8786   54.4049 C.2     1  ZINC000431691749    0.5200
     11 O11        -5.5572    2.6021   54.0391 O.2     1  ZINC000431691749   -0.4400
     12 C12        -7.1609    3.0509   55.8319 C.3     1  ZINC000431691749    0.0900
     13 H13        -7.0375    2.1245   56.3927 H       1  ZINC000431691749    0.1300
     14 C14        -6.4138    4.1969   56.5173 C.3     1  ZINC000431691749   -0.1500
     15 N15        -8.5891    3.3777   55.6783 N.am    1  ZINC000431691749   -0.6000
     16 C16        -9.5461    3.6469   56.7544 C.3     1  ZINC000431691749    0.1500
     17 C17       -10.9052    2.9548   56.5575 C.3     1  ZINC000431691749   -0.1600
     18 C18       -10.3137    1.7525   57.3120 C.3     1  ZINC000431691749   -0.1400
     19 C19        -9.3556    2.7477   57.9873 C.3     1  ZINC000431691749   -0.1500
     20 C20        -8.8419    3.3862   54.3571 C.2     1  ZINC000431691749    0.7000
     21 O21        -9.9344    3.6223   53.8797 O.2     1  ZINC000431691749   -0.5300
     22 C22        -7.6646    4.4506   51.5922 C.3     1  ZINC000431691749   -0.0700
     23 C23        -6.9662    4.4129   50.2314 C.3     1  ZINC000431691749   -0.1400
     24 C24        -9.0774    5.0135   51.4249 C.3     1  ZINC000431691749   -0.1400
     25 C25        -6.8702    5.3424   52.5486 C.3     1  ZINC000431691749   -0.1600
     26 C26        -5.2869    2.8032   51.7498 C.ar    1  ZINC000431691749   -0.1100
     27 H27        -2.3526    2.4829   52.3321 H       1  ZINC000431691749    0.0700
     28 H28        -2.2031    2.2704   50.5711 H       1  ZINC000431691749    0.0700
     29 H29        -2.8965    3.7712   51.2309 H       1  ZINC000431691749    0.0700
     30 H30        -3.4958    0.2134   50.5402 H       1  ZINC000431691749    0.1200
     31 H31        -5.7419   -0.7938   50.4708 H       1  ZINC000431691749    0.1200
     32 H32        -7.6967    0.5039   51.2175 H       1  ZINC000431691749    0.1100
     33 H33        -6.5688    5.1185   55.9564 H       1  ZINC000431691749    0.0700
     34 H34        -6.7918    4.3213   57.5321 H       1  ZINC000431691749    0.0800
     35 H35        -5.3490    3.9671   56.5519 H       1  ZINC000431691749    0.0800
     36 H36        -9.6252    4.7070   56.9951 H       1  ZINC000431691749    0.1000
     37 H37       -11.7241    3.4424   57.0865 H       1  ZINC000431691749    0.0900
     38 H38       -11.1402    2.7431   55.5144 H       1  ZINC000431691749    0.0700
     39 H39       -11.0140    1.2831   58.0028 H       1  ZINC000431691749    0.0700
     40 H40        -9.8116    1.0343   56.6637 H       1  ZINC000431691749    0.0800
     41 H41        -8.3396    2.3689   58.0987 H       1  ZINC000431691749    0.1000
     42 H42        -9.7508    3.1787   58.9072 H       1  ZINC000431691749    0.0900
     43 H43        -7.5321    3.7776   49.5501 H       1  ZINC000431691749    0.0600
     44 H44        -6.9093    5.4223   49.8241 H       1  ZINC000431691749    0.0600
     45 H45        -5.9596    4.0118   50.3506 H       1  ZINC000431691749    0.0600
     46 H46        -9.5749    5.0403   52.3943 H       1  ZINC000431691749    0.0500
     47 H47        -9.0205    6.0229   51.0176 H       1  ZINC000431691749    0.0600
     48 H48        -9.6433    4.3782   50.7436 H       1  ZINC000431691749    0.0500
     49 H49        -6.1977    4.7264   53.1456 H       1  ZINC000431691749    0.0700
     50 H50        -6.2887    6.0636   51.9743 H       1  ZINC000431691749    0.0400
     51 H51        -7.5584    5.8724   53.2072 H       1  ZINC000431691749    0.1000
     52 H52        -5.1592    3.8140   52.1082 H       1  ZINC000431691749    0.1300
@<TRIPOS>BOND
     1     1     2    1
     2     1    27    1
     3     1    28    1
     4     1    29    1
     5     2    26   ar
     6     2     3   ar
     7     3     4   ar
     8     3    30    1
     9     4     5   ar
    10     4    31    1
    11     5     6   ar
    12     5    32    1
    13     6     7    1
    14     6    26   ar
    15     7     8    1
    16     7     9    1
    17     7    22    1
    18     9    20   am
    19     9    10   am
    20    10    11    2
    21    10    12    1
    22    12    13    1
    23    12    14    1
    24    12    15    1
    25    14    33    1
    26    14    34    1
    27    14    35    1
    28    15    16    1
    29    15    20   am
    30    16    19    1
    31    16    17    1
    32    16    36    1
    33    17    18    1
    34    17    37    1
    35    17    38    1
    36    18    19    1
    37    18    39    1
    38    18    40    1
    39    19    41    1
    40    19    42    1
    41    20    21    2
    42    22    23    1
    43    22    24    1
    44    22    25    1
    45    23    43    1
    46    23    44    1
    47    23    45    1
    48    24    46    1
    49    24    47    1
    50    24    48    1
    51    25    49    1
    52    25    50    1
    53    25    51    1
    54    26    52    1
@<TRIPOS>SUBSTRUCTURE
     1 ZINC000431691749        1 TEMP              0 ****  ****    0 ROOT


##########                                Name:    ZINC000569288350
##########                DOCK_Rotatable_Bonds:                   3
##########                         Heavy_Atoms:                  19
##########                    Molecular_Weight:             393.559
##########                DOCK_Rotatable_Bonds:                   3
##########                       Formal_Charge:           0.0299999
##########                     HBond_Acceptors:                   5
##########                        HBond_Donors:                   1
##########                         Heavy_Atoms:                  19
##########                          Grid_Score:          -20.074116
##########                     Grid_vdw_energy:          -19.558977
##########                      Grid_es_energy:           -0.515140
##########           Internal_energy_repulsive:            4.376398

@<TRIPOS>MOLECULE
ZINC000569288350
 26 27 1 0 0
SMALL
USER_CHARGES


@<TRIPOS>ATOM
      1 O1         -1.8354    4.1160   50.4809 O.2     1  ZINC000569288350   -0.4800
      2 C2         -1.6337    3.0909   51.1029 C.2     1  ZINC000569288350    0.5700
      3 N3         -2.6699    2.4018   51.6205 N.am    1  ZINC000569288350   -0.6600
      4 C4         -3.9772    2.8690   51.4469 C.ar    1  ZINC000569288350    0.1800
      5 C5         -4.3786    4.0530   52.0509 C.ar    1  ZINC000569288350   -0.1200
      6 C6         -5.6699    4.5131   51.8785 C.ar    1  ZINC000569288350   -0.0600
      7 C7         -6.5640    3.7961   51.1056 C.ar    1  ZINC000569288350   -0.1500
      8 C8         -6.1687    2.6143   50.5008 C.ar    1  ZINC000569288350    0.1300
      9 F9         -7.0446    1.9161   49.7456 F       1  ZINC000569288350   -0.1200
     10 C10        -4.8746    2.1519   50.6650 C.ar    1  ZINC000569288350   -0.1000
     11 Cl11       -4.3776    0.6713   49.9071 Cl      1  ZINC000569288350   -0.0400
     12 C12        -0.2543    2.5979   51.2861 C.ar    1  ZINC000569288350   -0.1400
     13 C13         0.2500    1.5946   50.4524 C.ar    1  ZINC000569288350    0.1400
     14 F14        -0.5236    1.0729   49.4754 F       1  ZINC000569288350   -0.1200
     15 C15         1.5434    1.1386   50.6311 C.ar    1  ZINC000569288350   -0.1300
     16 C16         2.3355    1.6720   51.6305 C.ar    1  ZINC000569288350   -0.0600
     17 C17         1.8419    2.6649   52.4592 C.ar    1  ZINC000569288350   -0.0900
     18 C18         0.5563    3.1352   52.2896 C.ar    1  ZINC000569288350   -0.0500
     19 I19        -0.1862    4.6381   53.5463 I       1  ZINC000569288350    0.0000
     20 H20        -2.5093    1.5819   52.1132 H       1  ZINC000569288350    0.4200
     21 H21        -3.6816    4.6142   52.6557 H       1  ZINC000569288350    0.1600
     22 H22        -5.9814    5.4341   52.3486 H       1  ZINC000569288350    0.1500
     23 H23        -7.5730    4.1580   50.9733 H       1  ZINC000569288350    0.1500
     24 H24         1.9352    0.3640   49.9886 H       1  ZINC000569288350    0.1500
     25 H25         3.3446    1.3120   51.7658 H       1  ZINC000569288350    0.1500
     26 H26         2.4670    3.0762   53.2379 H       1  ZINC000569288350    0.1500
@<TRIPOS>BOND
     1     1     2    2
     2     2     3   am
     3     2    12    1
     4     3     4    1
     5     3    20    1
     6     4    10   ar
     7     4     5   ar
     8     5     6   ar
     9     5    21    1
    10     6     7   ar
    11     6    22    1
    12     7     8   ar
    13     7    23    1
    14     8     9    1
    15     8    10   ar
    16    10    11    1
    17    12    18   ar
    18    12    13   ar
    19    13    14    1
    20    13    15   ar
    21    15    16   ar
    22    15    24    1
    23    16    17   ar
    24    16    25    1
    25    17    18   ar
    26    17    26    1
    27    18    19    1
@<TRIPOS>SUBSTRUCTURE
     1 ZINC000569288350        1 TEMP              0 ****  ****    0 ROOT

